48
Properties=species:S:1:pos:R:3 pbc="F F F"
C        0.16503421      -1.49761727      -4.30525166
C        0.00266486      -0.18706877      -3.51719681
C        1.24086185       0.08463936      -2.72617901
N        1.41579578       0.00000000      -1.46505919
C        2.84841467       0.15396442      -1.18843385
C        3.48009703      -1.17307946      -0.69595794
C        4.94670387      -0.88873097      -0.36340014
C        3.38232226      -2.26299714      -1.76471403
C        2.76628127      -1.64663912       0.57229939
C        3.37431105       0.66979412      -2.53622917
O        2.30792641       0.38044050      -3.46306613
C       -1.26140735      -0.18937870      -2.72023275
N       -1.41579578       0.00000000      -1.46860394
C       -2.85383111       0.01040268      -1.17633361
C       -3.34540274       1.41345365      -0.74150933
C       -2.60012392       1.85279463       0.52049263
C       -3.11624535       2.44345694      -1.84861355
C       -4.83792104       1.30110954      -0.42103390
C       -3.44696879      -0.51358608      -2.49418563
O       -2.36053044      -0.41111983      -3.43578219
H       -0.70776025      -1.65298072      -4.95173655
H        1.06981989      -1.45170985      -4.92465469
H        0.25103326      -2.35000874      -3.61590823
H       -0.09718608       0.63442998      -4.24821607
H        2.94691508       0.90241342      -0.38772403
H        5.02936174      -0.11714680       0.41775760
H        5.52091655      -0.55036346      -1.24106410
H        5.43455295      -1.80065706       0.01274439
H        3.83357674      -3.19552661      -1.39334720
H        2.33170384      -2.48610000      -2.00682682
H        3.90503455      -1.99712226      -2.69742664
H        3.28916587      -2.52105690       0.98987718
H        1.72645676      -1.95256291       0.37696172
H        2.72947395      -0.85658701       1.33604975
H        3.53613650       1.75808330      -2.54573304
H        4.28082211       0.16724199      -2.89479018
H       -3.01667811      -0.68799768      -0.34133738
H       -2.64384238       1.08481227       1.30644904
H       -3.04193216       2.78295180       0.91039730
H       -1.53486096       2.05688796       0.33087342
H       -3.65134775       2.19664422      -2.77971720
H       -2.04404020       2.54218585      -2.07938340
H       -3.47024302       3.43310981      -1.52228299
H       -5.01311707       0.56930522       0.38295588
H       -5.43773393       0.99981154      -1.29496634
H       -5.22609482       2.27263840      -0.07976861
H       -3.74292916      -1.57191250      -2.44147381
H       -4.28658545       0.07641341      -2.88132830
