73
Properties=species:S:1:pos:R:3 pbc="F F F"
C       -0.02860634      -1.41935489      -4.59232304
C       -0.00749314      -1.24450039      -3.07451139
C        0.02219988      -2.62013808      -2.31501015
C        1.35263433      -3.29233275      -2.14238658
C        1.86820330      -3.44391321      -0.85301290
C        3.08720384      -4.08409639      -0.63562385
C        3.84261851      -4.59330988      -1.69594363
C        5.18658982      -5.29586953      -1.49773356
C        5.06191370      -6.75352881      -1.96493443
C        6.26390804      -4.58153500      -2.32638787
C        5.62503714      -5.28968463      -0.03297256
C        3.31076287      -4.44994328      -2.98663473
C        2.09145972      -3.82001602      -3.20878424
C        1.12499270      -0.33187320      -2.66092687
N        1.43058071      -0.00000000      -1.46401581
C        2.61684851       0.86657514      -1.51712596
C        3.90925650       0.17107089      -1.01667658
C        3.67938023      -0.41876403       0.37456890
C        4.35356624      -0.94047702      -1.96852709
C        4.99459556       1.24711571      -0.93058989
C        2.64097559       1.24600298      -3.00325968
O        1.83921781       0.22419132      -3.63301247
C       -1.29132689      -0.62488460      -2.57951463
N       -1.43058071       0.00000000      -1.47489728
C       -2.85941426       0.21583518      -1.23812137
C       -3.21605489       1.67112279      -0.87244756
C       -4.74014053       1.76570624      -0.76156865
C       -2.69333085       2.64214575      -1.93056087
C       -2.59563046       2.01452105       0.48234593
C       -3.49185546      -0.31575207      -2.54140860
O       -2.38965044      -0.88628388      -3.27261899
H       -0.16783160      -0.45731965      -5.10257889
H        0.92219327      -1.84378926      -4.93613705
H       -0.84937921      -2.08906850      -4.87662226
H       -0.67621116      -3.27481180      -2.86058165
H       -0.40881017      -2.46835608      -1.31277011
H        1.29698717      -3.05621606      -0.00371392
H        3.44713553      -4.17131678       0.38964372
H        4.78502104      -6.81806984      -3.02784779
H        4.29313148      -7.28656629      -1.38495762
H        6.01929010      -7.28283746      -1.83424041
H        6.37087321      -3.53242302      -2.01148741
H        7.23833808      -5.07858226      -2.19690902
H        6.02763067      -4.58624543      -3.40064574
H        6.60086247      -5.78909211       0.06516309
H        4.91259986      -5.82703015       0.61094078
H        5.73394172      -4.26540170       0.35551942
H        3.85665214      -4.84745240      -3.84562120
H        1.70555239      -3.75714928      -4.22904518
H        2.41867161       1.72958094      -0.86434274
H        2.92898551      -1.22012243       0.34528831
H        3.31831671       0.34059204       1.08165928
H        4.61900382      -0.84997531       0.75447451
H        4.64343882      -0.56347860      -2.96176288
H        3.57231617      -1.70132301      -2.10066850
H        5.23282728      -1.45340140      -1.55083987
H        4.71239889       2.03654465      -0.21670529
H        5.94153134       0.80407570      -0.58645298
H        5.19267453       1.72178031      -1.90584099
H        2.15557606       2.21294656      -3.20893363
H        3.63456699       1.23329446      -3.46481758
H       -3.12450204      -0.42595186      -0.38048109
H       -5.12539230       1.05896417      -0.00943749
H       -5.03553580       2.77843000      -0.44841700
H       -5.24778862       1.55971495      -1.71776897
H       -1.59733373       2.57694789      -2.00985906
H       -2.94750628       3.67668725      -1.65451438
H       -3.12328096       2.45641042      -2.92842973
H       -2.85960558       1.26968959       1.24820198
H       -2.95172592       2.99966424       0.82166352
H       -1.49694270       2.06489441       0.44439219
H       -3.93151174       0.47324226      -3.16825205
H       -4.23727790      -1.10538514      -2.38289908
