67
Properties=species:S:1:pos:R:3 pbc="F F F"
C       -4.35366925       1.51529620       3.81313236
C       -3.21232605       1.92742957       3.13019588
C       -2.88648555       1.37404028       1.89206062
C       -3.70401116       0.39205428       1.33257152
C       -3.43176319      -0.21987846      -0.01271554
N       -2.11198100      -0.00000000      -0.59715292
C       -2.28570457       0.05174994      -1.86347446
C       -1.15447832       0.04987707      -2.80696847
C       -1.21257436       0.06369806      -4.20200904
C        0.00005633       0.00029851      -4.89308300
C        1.21266100      -0.06325203      -4.20195695
C        1.15451460      -0.04975573      -2.80692753
C        2.28571818      -0.05170679      -1.86339154
N        2.11198100       0.00000000      -0.59707308
C        3.43176238       0.21998029      -0.01264046
C        3.70408231      -0.39182873       1.33269248
C        2.88623172      -1.37325217       1.89267339
C        3.21209454      -1.92642891       3.13090814
C        4.35379221      -1.51462709       3.81346166
C        5.17220498      -0.53149085       3.25698079
C        4.84398168       0.02973778       2.02686615
C        4.37600672      -0.25493803      -1.15658556
C        4.83145138      -1.68455293      -1.08119461
C        3.91130883      -2.73792122      -0.97672643
C        4.36301721      -4.05075032      -0.89516345
C        5.73044473      -4.32984864      -0.90968906
C        6.64867389      -3.28799412      -1.00698747
C        6.19709567      -1.97186584      -1.09419039
O        3.52936787      -0.06698183      -2.32973420
N        0.00000332      -0.00003425      -2.17304300
O       -3.52935806       0.06708047      -2.32983180
C       -4.37599696       0.25502479      -1.15669044
C       -4.83147534       1.68463862      -1.08130139
C       -3.91136614       2.73809023      -0.97745957
C       -4.36312865       4.05089373      -0.89580255
C       -5.73057354       4.32989213      -0.90962694
C       -6.64878819       3.28796131      -1.00628853
C       -6.19714636       1.97185520      -1.09358561
C       -4.84352845      -0.02985511       2.02713786
C       -5.17173850       0.53158999       3.25715322
H       -4.60501423       1.95407199       4.78179662
H       -2.55882076       2.69069413       3.55920875
H       -1.98511912       1.70796471       1.36990935
H       -3.52843646      -1.31677916       0.09350353
H       -2.17077788       0.11818885      -4.72033164
H        0.00009322       0.00042772      -5.98516299
H        2.17089292      -0.11757937      -4.72026435
H        3.52836016       1.31688407       0.09353047
H        1.98462979      -1.70697424       1.37081466
H        2.55833401      -2.68925944       3.56027527
H        4.60514895      -1.95322728       4.78219739
H        6.06544575      -0.19388846       3.78804946
H        5.48130051       0.81167585       1.60246913
H        5.23812503       0.41189675      -1.27825145
H        2.83603959      -2.54428000      -0.93073821
H        3.63745718      -4.86237087      -0.80613821
H        6.07909116      -5.36298739      -0.83981255
H        7.72073808      -3.49779858      -1.01644602
H        6.91861818      -1.15359940      -1.17119557
H       -5.23812114      -0.41180200      -1.27835455
H       -2.83604883       2.54454618      -0.93198779
H       -3.63757723       4.86257792      -0.80726779
H       -6.07925718       5.36302069      -0.83968345
H       -7.72086626       3.49767500      -1.01518998
H       -6.91864766       1.15353036      -1.17011043
H       -5.48054560      -0.81224560       1.60311488
H       -6.06468410       0.19371854       3.78855455
