67
Properties=species:S:1:pos:R:3 pbc="F F F"
C        0.02307394       1.26520804      -4.47461782
C        0.00002582      -0.00018759      -3.59453700
C       -0.02299432      -1.26526667      -4.47504621
C       -1.25416035       0.02634263      -2.76407086
N       -1.38253239       0.00000000      -1.49650380
C       -2.79474989       0.13420111      -1.16000367
C       -3.07397198       1.43188411      -0.43854975
C       -4.32177570       1.60688427       0.16880353
C       -4.63808237       2.80101033       0.80576507
C       -3.70011011       3.83270119       0.86335248
C       -2.44686846       3.65591816       0.28536957
C       -2.13668453       2.46391046      -0.36866240
C       -3.48406663      -0.04004678      -2.55439660
C       -4.58151014       0.91477353      -2.90190602
C       -4.29991841       2.24476576      -3.22863193
C       -5.33570708       3.14076631      -3.46943362
C       -6.66300943       2.71924777      -3.38079092
C       -6.94935766       1.39402439      -3.06210563
C       -5.91028999       0.49436711      -2.82956348
O       -2.37613246       0.09270793      -3.47704282
C        1.25415454      -0.02683489      -2.76401312
N        1.38253239      -0.00000000      -1.49647021
C        2.79473605      -0.13426619      -1.15991034
C        3.07385427      -1.43182507      -0.43821426
C        2.13657579      -2.46385591      -0.36832161
C        2.44662982      -3.65574927       0.28597640
C        3.69975708      -3.83243519       0.86422349
C        4.63775258      -2.80076210       0.80659090
C        4.32156135      -1.60675282       0.16936245
C        3.48404739       0.03960081      -2.55435738
C        4.58162212      -0.91521486      -2.90145796
C        4.30019269      -2.24527706      -3.22801205
C        5.33609077      -3.14125958      -3.46841035
C        6.66334001      -2.71965255      -3.37950307
C        6.94954511      -1.39436819      -3.06095836
C        5.91037250      -0.49472116      -2.82883051
O        2.37617373      -0.09359159      -3.47693113
H        0.92040338       1.25711383      -5.10696025
H       -0.86989974       1.28907430      -5.11267662
H        0.03658418       2.17353064      -3.85411749
H        0.86999747      -1.28890738      -5.11307744
H       -0.92030611      -1.25694590      -5.10741381
H       -0.03652667      -2.17380490      -3.85487652
H       -3.05204089      -0.69435484      -0.48284106
H       -5.05546187       0.79753297       0.13957488
H       -5.61859280       2.92391154       1.27146394
H       -3.94256872       4.76701341       1.37500000
H       -1.69218208       4.44246777       0.35304111
H       -1.13843617       2.33606805      -0.79279010
H       -3.84622651      -1.07492884      -2.65616008
H       -3.26286202       2.58136907      -3.28272906
H       -5.10677341       4.17922255      -3.71906594
H       -7.47531618       3.42647940      -3.56372675
H       -7.98611198       1.05583907      -2.99847835
H       -6.13540980      -0.54704601      -2.58241074
H        3.05210143       0.69441013      -0.48292295
H        1.13840643      -2.33613895      -0.79270390
H        1.69191938      -4.44227936       0.35365487
H        3.94211812      -4.76663426       1.37610596
H        5.61819865      -2.92359195       1.27245203
H        5.05527769      -0.79741806       0.14009111
H        3.84611006       1.07449732      -2.65643391
H        3.26316093      -2.58191983      -3.28231492
H        5.10727226      -4.17976627      -3.71792803
H        7.47573459      -3.42687065      -3.56213723
H        7.98626309      -1.05611565      -2.99712565
H        6.13537735       0.54674198      -2.58179325
