47
Properties=species:S:1:pos:R:3 pbc="F F F"
C       -4.05733296       4.02681299      -0.09979979
C       -3.22557569       3.35541440       0.80091282
C       -2.79389649       2.05610313       0.53749050
C       -3.20933451       1.45173359      -0.64733601
C       -4.04484332       2.11365585      -1.55002894
C       -4.47689628       3.41026091      -1.27875665
C       -4.39010769       1.23820236      -2.72567741
C       -3.50239385       0.00405557      -2.55834662
O       -2.37520285       0.04121112      -3.46812945
C       -1.26090920       0.01425793      -2.73711318
C        0.00021792       0.00026177      -3.49968300
C        1.26117920      -0.01368110      -2.73682282
N        1.40022750      -0.00000000      -1.46753964
C        2.83068839      -0.08779130      -1.16429295
C        3.20947157      -1.45144171      -0.64676998
C        2.79408292      -2.05585958       0.53805352
C        3.22590606      -3.35512676       0.80146121
C        4.05775488      -4.02641039      -0.09924617
C        4.47725411      -3.40981385      -1.27819933
C        4.04506747      -2.11325778      -1.54947705
C        4.39022244      -1.23775800      -2.72510861
C        3.50264243      -0.00349534      -2.55757938
O        2.37564545      -0.04014621      -3.46758654
C        0.00846678       0.73722866      -4.83809594
C       -0.00775202      -0.73723433      -4.83786003
N       -1.40022750       0.00000000      -1.46787637
C       -2.83069155       0.08803833      -1.16489306
H       -4.38534946       5.04506284       0.12317382
H       -2.90897844       3.85113458       1.72131048
H       -2.15142601       1.51346959       1.23683444
H       -5.13333130       3.93810923      -1.97547184
H       -4.20603379       1.71707325      -3.70002230
H       -5.45397442       0.94968913      -2.70921728
H       -4.02774495      -0.94067812      -2.75374188
H        3.07861814       0.71838785      -0.45771341
H        2.15154838      -1.51327994       1.23737958
H        2.90936387      -3.85089615       1.72185357
H        4.38589102      -5.04463319       0.12373023
H        5.13377110      -3.93759556      -1.97489414
H        5.45413411      -0.94938528      -2.70885873
H        4.20589875      -1.71655854      -3.69944375
H        4.02821248       0.94119326      -2.75256410
H        0.94201438       1.24749361      -5.08190961
H       -0.91219456       1.26959590      -5.08326632
H       -0.94123443      -1.24759201      -5.08166637
H        0.91296024      -1.26972058      -5.08262965
H       -3.07898111      -0.71816937      -0.45847263
