93
Properties=species:S:1:pos:R:3 pbc="F F F"
C       -1.38643784      -4.75526003      -6.66353958
C       -1.53345412      -3.47778187      -7.49067252
C       -3.00479924      -3.33207558      -7.90582586
C       -0.65631238      -3.60832649      -8.74384829
C       -1.11534784      -2.23599602      -6.70265302
C       -0.72385345      -2.28041748      -5.36373274
C       -0.36243403      -1.12455203      -4.66982277
C       -0.38802417       0.12990179      -5.28120202
C       -0.04205832       1.42134808      -4.57945346
C        0.02419912       1.36014329      -3.04654649
C        0.14442818       2.78696675      -2.40586125
C        1.46848902       3.45143075      -2.65186801
C        2.48933226       3.33814536      -1.69964378
C        3.73428995       3.91242956      -1.92998025
C        4.01655882       4.61888130      -3.10886913
C        5.40444386       5.22601228      -3.32105979
C        5.70460118       6.21345967      -2.18419261
C        5.51182012       5.97204550      -4.65123092
C        6.44860287       4.10047236      -3.31090104
C        2.98401026       4.73960712      -4.04553159
C        1.73205791       4.16941163      -3.82007418
C       -1.25408058       0.75561022      -2.52303078
N       -1.38645832      -0.00000000      -1.50208017
C       -2.77583011      -0.44597219      -1.44643486
C       -2.91084037      -1.86552952      -1.93766639
C       -2.34472982      -3.01000841      -1.38048851
C       -2.55910602      -4.23095421      -2.01930961
C       -3.32755073      -4.29828288      -3.18599812
C       -3.88460260      -3.14560196      -3.73960161
C       -3.66540897      -1.92165953      -3.11069297
C       -4.15762656      -0.55979519      -3.51834841
C       -3.46966369       0.40169450      -2.54719137
O       -2.35666496       1.06821635      -3.19114298
C        1.22153140       0.55545838      -2.60305493
N        1.38645832       0.00000000      -1.46307335
C        2.70829619      -0.63060408      -1.44349723
C        3.70938359       0.00241438      -0.51456981
C        3.68365973       0.03297161       0.87710915
C        4.73028279       0.66089881       1.54833492
C        5.78624129       1.23520830       0.83567305
C        5.80755543       1.19924347      -0.55816468
C        4.75364251       0.58678115      -1.23410827
C        4.56090813       0.45062288      -2.71943986
C        3.25850369      -0.34021290      -2.86771476
O        2.21387057       0.44772998      -3.47359182
C       -0.78121220       0.17821929      -6.62478958
C       -1.13179786      -0.97342420      -7.31659204
H       -1.69525789      -5.62488769      -7.26340017
H       -2.01339024      -4.73134545      -5.76006438
H       -0.34367175      -4.91919236      -6.35140557
H       -3.65158061      -3.23754658      -7.02020597
H       -3.16483450      -2.44338143      -8.53443303
H       -3.33418984      -4.21346164      -8.47891470
H        0.40556135      -3.70578471      -8.47069621
H       -0.75359773      -2.73615326      -9.40708505
H       -0.94457463      -4.50042876      -9.32227681
H       -0.71065345      -3.22608730      -4.82157839
H       -0.08747504      -1.23756641      -3.61919224
H       -0.79728056       2.17518722      -4.84583212
H        0.92551543       1.79812165      -4.94222398
H       -0.68652018       3.38660214      -2.80769416
H       -0.00208028       2.67557545      -1.31941783
H        2.29312752       2.80474857      -0.76269104
H        4.50124597       3.79999573      -1.16013203
H        4.96475338       7.02817461      -2.16725608
H        5.68336099       5.72202060      -1.20052228
H        6.70347448       6.65922114      -2.31586194
H        6.52381198       6.39022416      -4.76253908
H        4.79928332       6.80897085      -4.70875977
H        5.33193564       5.30673490      -5.50963285
H        6.25458380       3.37672771      -4.11807213
H        6.44024920       3.55352751      -2.35710641
H        7.46099180       4.51025475      -3.45540061
H        3.14405562       5.29324912      -4.97122656
H        0.94462628       4.29948377      -4.56769192
H       -3.15775582      -0.31182984      -0.42365394
H       -1.75819053      -2.92676691      -0.46066772
H       -2.13064398      -5.14431012      -1.59976786
H       -3.49504877      -5.26480644      -3.66802989
H       -4.47929713      -3.20332021      -4.65474334
H       -3.89501792      -0.30484597      -4.55684678
H       -5.25367444      -0.48244387      -3.43061393
H       -4.13173938       1.19211371      -2.16837610
H        2.57831899      -1.70420921      -1.23125142
H        2.84899544      -0.39780145       1.43233242
H        4.72020140       0.70751992       2.63921582
H        6.60449500       1.71683987       1.37661744
H        6.64016572       1.64197680      -1.11023860
H        4.45641095       1.43295611      -3.20836095
H        5.40355107      -0.06769405      -3.20294537
H        3.36708063      -1.23649565      -3.49302655
H       -0.82013793       1.14401955      -7.13713273
H       -1.43509705      -0.88176606      -8.36253340
