49
Properties=species:S:1:pos:R:3 pbc="F F F"
N        1.39049604       0.00000000      -1.47019385
C        1.25700761       0.01445348      -2.73839425
O        2.37646799       0.04644966      -3.45966683
C        3.49895401       0.02350088      -2.54631086
C        2.81948446       0.09865733      -1.15695283
C        0.00000178       0.00008475      -3.56605200
C       -1.25701133      -0.01437302      -2.73839975
N       -1.39049604      -0.00000000      -1.47019015
C       -2.81948197      -0.09870515      -1.15695117
C       -3.49896251      -0.02346670      -2.54629314
O       -2.37646700      -0.04634415      -3.45965717
C       -0.01218950       1.26648161      -4.44493811
C        0.01221339      -1.26620171      -4.44509589
C        3.17835079       1.46618115      -0.63572405
C        4.00777161       2.14018083      -1.53535111
C        4.37035844       1.27009100      -2.70963232
C       -4.37034644      -1.27006048      -2.70969168
C       -4.00774610      -2.14022078      -1.53547289
C       -3.17831350      -1.46626815      -0.63580995
C        4.42009716       3.44275398      -1.26194376
C        3.98730029       4.05300719      -0.08444993
C        3.16222267       3.36950126       0.81320690
C        2.75031830       2.06410671       0.54799948
C       -2.75025771      -2.06428207       0.54785652
C       -3.16212427      -3.36970206       0.81297909
C       -3.98720501      -4.05315610      -0.08471407
C       -4.42002900      -3.44282851      -1.26216024
H        4.03848625      -0.91370141      -2.73946284
H        3.06829988      -0.70607737      -0.44926295
H       -3.06830943       0.70597795      -0.44920105
H       -4.03850118       0.91374101      -2.73938117
H       -0.00656395       2.17353348      -3.82279375
H        0.87533381       1.27759767      -5.09061261
H       -0.91446641       1.27228789      -5.07010324
H        0.00648870      -2.17332775      -3.82307025
H       -0.87524515      -1.27718151      -5.09085139
H        0.91456461      -1.27197084      -5.07017076
H        5.43830920       0.99746103      -2.68902337
H        4.18235324       1.74632274      -3.68448065
H       -4.18236205      -1.74622376      -3.68457335
H       -5.43831482      -0.99744151      -2.68904063
H        5.07165299       3.98001908      -1.95602553
H        4.29980041       5.07583079       0.13987933
H        2.83510676       3.86020180       1.73259815
H        2.11349704       1.51301076       1.24585097
H       -2.11341735      -1.51323103       1.24573503
H       -2.83498692      -3.86046809       1.73232785
H       -4.29968917      -5.07600416       0.13953666
H       -5.07159527      -3.98004394      -1.95626847
