47
Properties=species:S:1:pos:R:3 pbc="F F F"
N       -1.40032936      -0.00000000      -1.46783112
C       -1.26105689      -0.01422487      -2.73708752
O       -2.37540174      -0.04160487      -3.46803908
C       -3.50253847      -0.00470925      -2.55819528
C       -2.83073464      -0.08865114      -1.16480928
C       -0.00000829       0.00021353      -3.49978200
C        1.26104690       0.01446762      -2.73708648
N        1.40032936       0.00000000      -1.46784289
C        2.83073935       0.08850804      -1.16481474
C        3.50253525       0.00488472      -2.55823873
O        2.37537297       0.04194077      -3.46805492
C       -3.20888560      -1.45254165      -0.64740550
C       -4.04439747      -2.11453103      -1.55007449
C       -4.39002297      -1.23901093      -2.72555769
C        4.38997139       1.23926336      -2.72535632
C        4.04443795       2.11446218      -1.54960953
C        3.20897719       1.45224755      -0.64706853
C       -4.47613606      -3.41126738      -1.27891654
C       -4.05627237      -4.02789832      -0.10011740
C       -3.22452244      -3.35646057       0.80056231
C       -2.79314909      -2.05701395       0.53726459
C        2.79333690       2.05638817       0.53781137
C        3.22474703       3.35574925       0.80144364
C        4.05644963       4.02742547      -0.09911664
C        4.47621275       3.41111157      -1.27811749
C       -0.00837460       0.73761489      -4.83797582
C        0.00834924      -0.73684326      -4.83815816
H       -4.02806583       0.93994919      -2.75348855
H       -3.07930709       0.71735610      -0.45826533
H        3.07930088      -0.71769662      -0.45847871
H        4.02809292      -0.93970648      -2.75373545
H       -4.20593871      -1.71773580      -3.69997439
H       -5.45395121      -0.95073238      -2.70895901
H        4.20577795       1.71823728      -3.69962960
H        5.45391509       0.95101383      -2.70893499
H       -5.13257877      -3.93914457      -1.97560715
H       -4.38404427      -5.04625733       0.12275930
H       -2.90767240      -3.85224180       1.72082873
H       -2.15070385      -1.51440579       1.23664604
H        2.15095493       1.51353314       1.23707990
H        2.90798369       3.85127666       1.72187721
H        4.38424755       5.04571015       0.12401666
H        5.13262100       3.93918261      -1.97470686
H       -0.94206560       1.24763843      -5.08169259
H        0.91212658       1.27038357      -5.08286550
H        0.94203893      -1.24681016      -5.08201139
H       -0.91216193      -1.26955992      -5.08317847
