37
Properties=species:S:1:pos:R:3 pbc="F F F"
C       -0.07156694      -0.94667258      -4.75265278
C       -0.00857697      -1.07769560      -3.22931088
C       -1.27351810      -0.56162736      -2.59494250
N       -1.40214665       0.00000000      -1.45618938
C       -2.82459627       0.10695415      -1.15298044
C       -3.49568987      -0.38216889      -2.44493511
O       -2.39469827      -0.84393447      -3.25194211
N        1.40214665       0.00000000      -1.47778282
C        1.21484593      -0.38762625      -2.67936059
O        2.24721439      -0.27442832      -3.50838276
C        3.27164359       0.43808805      -2.78653976
C        2.81111260       0.35250437      -1.31913510
H        2.86725373       1.31998928      -0.79608326
C        3.57236470      -0.67513060      -0.50113833
C        4.96762385      -0.57967494      -0.44509162
C        5.71605475      -1.48645130       0.29994340
C        5.07486831      -2.50285099       1.00692775
C        3.68623627      -2.59517100       0.96654571
C        2.93586089      -1.68710736       0.22097929
C        0.09383079      -2.56461068      -2.80023738
H       -0.12833723       0.10624559      -5.06403682
H       -0.95683271      -1.47079918      -5.13265708
H        0.82772414      -1.38759594      -5.19999777
H       -3.08674546       1.14249194      -0.89205453
H       -3.02156340      -0.53561319      -0.27999823
H       -4.01096976       0.41247776      -3.00393544
H       -4.18430659      -1.22514226      -2.29956151
H        3.29151491       1.46883392      -3.17256605
H        4.23176306      -0.05329269      -2.98248591
H        5.48287195       0.22357933      -0.98106102
H        6.80426972      -1.39422521       0.33329334
H        5.65772253      -3.21503800       1.59571530
H        3.16819184      -3.37411248       1.53049763
H        1.84738678      -1.76978994       0.23649934
H       -0.72093853      -3.13490038      -3.26788543
H        0.00908622      -2.65498194      -1.70631466
H        1.05518845      -2.98265989      -3.13067183
