47
Properties=species:S:1:pos:R:3 pbc="F F F"
C       -0.17421840      -1.25527619      -4.42886292
C       -0.00001021       0.00013084      -3.55137100
C        1.24706503      -0.15109155      -2.72495594
N        1.40614539      -0.00000000      -1.46450761
C        2.83651546      -0.12778511      -1.18576749
C        3.37300853      -0.79517276      -2.44998484
H        4.30183814      -0.34385793      -2.82081920
O        2.33665656      -0.44136836      -3.42780880
C        3.48389290      -2.29573200      -2.41554736
C        2.75236479      -3.06579683      -1.50231791
C        2.82934114      -4.45695310      -1.55048795
C        3.63101463      -5.08848926      -2.49969792
C        4.36544917      -4.32512144      -3.40692750
C        4.29029630      -2.93589838      -3.36290748
N       -1.40614539       0.00000000      -1.46449439
C       -1.24710819       0.15109896      -2.72495607
O       -2.33673047       0.44127355      -3.42778321
C       -3.37300216       0.79518774      -2.44991717
H       -4.30190413       0.34400434      -2.82073280
C       -2.83653892       0.12768292      -1.18576452
C       -3.48366278       2.29576946      -2.41549463
C       -4.28985296       2.93602893      -3.36299451
C       -4.36481269       4.32525637      -3.40706448
C       -3.63037756       5.08854328      -2.49974407
C       -2.82892476       4.45692066      -1.55041405
C       -2.75214110       3.06574563      -1.50220409
C        0.17422118       1.25583757      -4.42840907
H       -0.26830402      -2.15682030      -3.80595228
H        0.70087259      -1.37441577      -5.08017572
H       -1.07661867      -1.15248576      -5.04576125
H        2.98344144      -0.70337175      -0.26249132
H        3.25607220       0.88009033      -1.03388719
H        2.13218823      -2.59420263      -0.73134844
H        2.26131933      -5.04861175      -0.82890924
H        3.69118600      -6.17916364      -2.52782931
H        5.00293153      -4.81405402      -4.14730708
H        4.86584410      -2.33644641      -4.07414577
H       -3.25605179      -0.88023469      -1.03406481
H       -2.98347115       0.70316616      -0.26242068
H       -4.86539588       2.33663260      -4.07427622
H       -5.00211253       4.81426155      -4.14753490
H       -3.69039893       6.17921913      -2.52791267
H       -2.26090767       5.04850891      -0.82876275
H       -2.13210678       2.59409307      -0.73115356
H        1.07659316       1.15325858      -5.04537073
H        0.26833480       2.15716986      -3.80517971
H       -0.70087755       1.37524108      -5.07966626
