42
Properties=species:S:1:pos:R:3 pbc="F F F"
C       -3.57398328       0.46095060      -0.46959701
C       -2.77846528      -0.46535523      -1.37201644
H       -2.76269067      -1.47216592      -0.93012598
C       -3.22849876      -0.46240968      -2.84282439
O       -2.21963075       0.31645635      -3.51796827
C       -1.20752816       0.44784321      -2.66527974
N       -1.39190421      -0.00000000      -1.48432963
N        1.39190421       0.00000000      -1.48313742
C        1.26523495       0.59779498      -2.60145698
C        0.00266122       1.20088446      -3.16306531
C        0.04190789       1.22658842      -4.69158474
C       -0.07752690       2.63533020      -2.58480328
O        2.37569230       0.81788615      -3.29575606
C        3.46856470       0.27734616      -2.52829008
C        2.80927972      -0.27120863      -1.24620071
H        3.08765453       0.33134981      -0.36546861
C        3.08958773      -1.75332186      -0.92118874
C        4.59897566      -1.90973669      -0.72256526
C        2.37257833      -2.12259113       0.37967705
C        2.60020697      -2.66390330      -2.04699275
H       -3.57594275       1.48990364      -0.86320558
H       -3.12663779       0.45269418       0.53402005
H       -4.61500652       0.11251587      -0.39104153
H       -4.20018576       0.02148827      -3.00822427
H       -3.23620939      -1.46312128      -3.30107685
H        0.09009401       0.21158532      -5.11045410
H        0.92465987       1.78325582      -5.02875249
H       -0.86145708       1.71373175      -5.07912201
H       -0.00487681       2.61554584      -1.48687183
H       -1.02438281       3.10776958      -2.88324594
H        0.75439160       3.23501347      -2.98043438
H        4.18274598       1.09012498      -2.34163943
H        3.95555832      -0.49416128      -3.14107435
H        4.95866878      -1.25997770       0.09079506
H        5.16995593      -1.66634855      -1.63332865
H        4.84267065      -2.94857790      -0.45330972
H        2.59141647      -1.40283478       1.18261067
H        2.68608631      -3.12392558       0.71329526
H        1.27742651      -2.15374312       0.26497596
H        3.11331827      -2.47100619      -3.00318347
H        1.51750020      -2.54190238      -2.20547234
H        2.78205707      -3.71813865      -1.78856529
