52
Properties=species:S:1:pos:R:3 pbc="F F F"
C       -0.02622778      -1.16821228      -4.71418047
C        0.00677462      -1.17591438      -3.18537416
C       -1.25597551      -0.58047453      -2.61519196
N       -1.38567103       0.00000000      -1.48779108
C       -2.80153871       0.28438876      -1.25750622
H       -3.08899426      -0.30619823      -0.37196974
C       -3.46088923      -0.26924840      -2.53737662
O       -2.36442631      -0.78551337      -3.31683380
C       -3.06672900       1.77319876      -0.94812515
C       -2.57962244       2.66618365      -2.08894625
C       -4.57285432       1.94467605      -0.73835372
C       -2.33525535       2.15205891       0.34194402
N        1.38567103       0.00000000      -1.47933524
C        1.21700203      -0.43850387      -2.66701108
O        2.24480959      -0.31034089      -3.49901331
C        3.24131049       0.47213364      -2.80292044
C        2.77283431       0.44286576      -1.34235874
H        2.77606959       1.43364595      -0.86755528
C        3.54676389      -0.53184935      -0.44978360
C        4.92386357      -0.01972748      -0.13797851
C        5.07735806       1.03089278       0.77758133
C        6.33890801       1.55319477       1.04799888
C        7.46700194       1.03580582       0.40907334
C        7.32574982      -0.01117048      -0.49858366
C        6.06076037      -0.53391182      -0.76934911
C        0.08129878      -2.62242655      -2.63722163
H       -0.07209777      -0.14403609      -5.11040106
H       -0.90760002      -1.71678807      -5.06788589
H        0.87900789      -1.64683778      -5.10797820
H       -3.96846294       0.49485575      -3.14220175
H       -4.15714619      -1.09719070      -2.34847241
H       -2.75083830       3.72489182      -1.84180518
H       -3.10221632       2.46608815      -3.03843513
H       -1.49918422       2.53440130      -2.25510571
H       -4.80602095       2.98938780      -0.48289853
H       -4.93018023       1.31004162       0.08783071
H       -5.15385135       1.69197289      -1.64016617
H       -2.63914488       3.15886734       0.66778889
H       -1.24124198       2.17624532       0.21481363
H       -2.54982911       1.44224352       1.15480761
H        3.23643748       1.48026407      -3.24357799
H        4.22354244       0.01019638      -2.96533620
H        3.59565784      -1.51607583      -0.94469857
H        2.96291316      -0.64142795       0.47657275
H        4.18981072       1.42418798       1.28333223
H        6.44425042       2.36747289       1.76914389
H        8.45674904       1.44530435       0.62492062
H        8.20476469      -0.42847798      -0.99601506
H        5.95712342      -1.36671546      -1.47179511
H       -0.75367210      -3.21058065      -3.04356236
H        0.01123732      -2.62411854      -1.53909326
H        1.02581098      -3.09268835      -2.94626505
