39
Properties=species:S:1:pos:R:3 pbc="F F F"
C        4.52716169      -2.01827766      -0.77488882
C        3.02149417      -1.80986106      -0.95235202
C        2.78829016      -0.31920023      -1.27394451
H        3.09930142       0.27295451      -0.39671749
C        3.44475914       0.21093813      -2.56509107
O        2.36462732       0.82439299      -3.29548998
C        1.25630714       0.62862585      -2.58942764
N        1.37876855       0.00000000      -1.48794108
N       -1.37876855       0.00000000      -1.49880513
C       -1.22205054       0.56179116      -2.63293408
C        0.00768524       1.29387117      -3.11269037
C       -0.01932156       2.70810193      -2.48178540
C        0.02942834       1.37504963      -4.64005872
O       -2.27451993       0.57082744      -3.44675590
C       -3.34994728      -0.10568771      -2.76091488
C       -2.73966423      -0.50790477      -1.40806098
C        2.48519776      -2.70358025      -2.07023875
C        2.30989335      -2.15370465       0.35908970
H        4.73974174      -3.06519425      -0.51055909
H        4.92037501      -1.38223081       0.03377233
H        5.09227470      -1.79242006      -1.69384980
H        3.87002872      -0.57832122      -3.20127288
H        4.20932287       0.97823109      -2.38692639
H        0.07149745       2.64731084      -1.38635111
H       -0.95505527       3.21979901      -2.74872500
H        0.82508960       3.29536887      -2.86964789
H        0.03853249       0.37527432      -5.09688598
H        0.92718192       1.91323412      -4.96758548
H       -0.86082257       1.90736866      -4.99715175
H       -3.65874529      -0.95827550      -3.38183643
H       -4.18996382       0.59810964      -2.67784012
H       -2.71333988      -1.59141524      -1.22424535
H       -3.23523648      -0.06234175      -0.53402092
H        2.63064459      -3.76336864      -1.81143050
H        2.99418398      -2.53175307      -3.03254084
H        1.40617590      -2.54121295      -2.21716336
H        2.59716995      -3.16319271       0.69173925
H        1.21224227      -2.15380818       0.25945799
H        2.55989778      -1.43862298       1.15706637
