33
Properties=species:S:1:pos:R:3 pbc="F F F"
C       -3.24612491       1.15268552      -0.32480324
C       -2.83339408      -0.04195303      -1.16127803
H       -2.99212924      -0.95515335      -0.56681207
C       -3.48251192      -0.11676669      -2.55594017
O       -2.37243915      -0.12180263      -3.47103106
C       -1.25723732      -0.04312367      -2.74440087
N       -1.39971569       0.00000000      -1.47872154
N        1.39971569      -0.00000000      -1.47870955
C        1.25718250       0.03352154      -2.74468692
C        0.00003765      -0.01017496      -3.57063512
C        0.04599086      -1.28091268      -4.44249008
C       -0.04576259       1.24808409      -4.46021941
O        2.37220740       0.10912621      -3.47185388
C        3.48205713       0.12028904      -2.55649278
C        2.83339954       0.04410438      -1.16162587
H        2.99148898       0.95697212      -0.56659775
C        3.24717250      -1.15095665      -0.32607670
H       -3.01381370       2.09843576      -0.83924806
H       -2.71626824       1.11754232       0.63785212
H       -4.32715051       1.11859690      -0.12142043
H       -4.10759621       0.75884081      -2.78752260
H       -4.06694277      -1.03146756      -2.72630533
H        0.07498528      -2.18406586      -3.81529640
H        0.94260609      -1.26217095      -5.07548375
H       -0.84630974      -1.32441777      -5.08016335
H       -0.07485134       2.16003543      -3.84588773
H       -0.94227426       1.22051516      -5.09299109
H        0.84666249       1.28268175      -5.09824138
H        4.05576860       1.04118577      -2.73036165
H        4.11737852      -0.74871313      -2.78459358
H        4.32800412      -1.11557337      -0.12191097
H        3.01654090      -2.09651108      -0.84166620
H        2.71656093      -1.11755003       0.63622670
