40
Properties=species:S:1:pos:R:3 pbc="F F F"
C        0.00108956      -2.68827817      -2.67596185
C       -0.07550211      -1.21586345      -3.15534477
C        1.18264589      -0.53396527      -2.67215870
N        1.40888236       0.00000000      -1.53436704
C        2.83472145       0.36592076      -1.45869594
C        3.29660614       0.10624149      -2.91878615
O        2.20204754      -0.59420953      -3.52382186
C        2.96931212       1.83399670      -1.06740960
C        3.57985470      -0.54422829      -0.48500642
C        2.94288677      -1.51679402       0.28795084
C        3.67933101      -2.32366576       1.15480712
C        5.05875763      -2.17571327       1.26084957
C        5.70443561      -1.20917095       0.49038414
C        4.96896912      -0.40149430      -0.37158852
N       -1.40888236      -0.00000000      -1.42680988
C       -1.31459828      -0.63944538      -2.52756185
O       -2.45567576      -0.94016301      -3.13988372
C       -3.52746736      -0.38851748      -2.35169519
C       -2.82222237       0.13796760      -1.09414675
C       -0.17140295      -1.14426101      -4.68310800
H       -0.06080460      -2.74049078      -1.57747724
H        0.94359840      -3.13806266      -3.01853970
H       -0.83830800      -3.25321391      -3.10498287
H        4.19143039      -0.52355015      -2.99098292
H        3.45116906       1.03922764      -3.48279823
H        2.41967219       2.46623091      -1.78153145
H        4.02525960       2.14019736      -1.06821538
H        2.54990147       1.97825554      -0.06146047
H        1.86171913      -1.65774032       0.24634007
H        3.15368467      -3.06711353       1.75811803
H        5.63104156      -2.80771153       1.94394975
H        6.78677512      -1.07872956       0.56393258
H        5.49211613       0.35569070      -0.96326113
H       -4.25192537      -1.19005947      -2.15689613
H       -4.01093407       0.39933369      -2.94807018
H       -3.00849700      -0.47596844      -0.19828114
H       -3.06766501       1.18418744      -0.86246328
H        0.70079853      -1.63350460      -5.13280750
H       -0.20256303      -0.10327890      -5.03642211
H       -1.08297175      -1.65349834      -5.01858500
