43
Properties=species:S:1:pos:R:3 pbc="F F F"
C       -3.08701464       1.56020665      -0.49685986
C       -2.81169550       0.18275901      -1.06046204
H       -3.02351897      -0.58308544      -0.29357342
C       -3.50925898      -0.14663983      -2.39018070
O       -2.47708764      -0.75323631      -3.19112794
C       -1.32654048      -0.55916945      -2.55197437
N       -1.40167170       0.00000000      -1.40919734
N        1.40167170       0.00000000      -1.54404691
C        1.16829823      -0.50422953      -2.69362786
C       -0.10264552      -1.15321797      -3.19334002
C       -0.05983054      -2.63363446      -2.73515523
C       -0.19377924      -1.05482989      -4.71886634
O        2.18590598      -0.55633182      -3.54766888
C        3.30495429       0.07936657      -2.91565012
C        2.82286800       0.37719680      -1.46675751
C        2.92993058       1.85903289      -1.11762323
C        3.56850486      -0.49074377      -0.45777108
C        4.95100346      -0.31198815      -0.31782444
C        5.68572352      -1.08380246       0.57703612
C        5.04591589      -2.04870531       1.35450467
C        3.67325158      -2.23301625       1.22098056
C        2.93792361      -1.46353958       0.31987766
H       -2.84698706       2.34287519      -1.23311912
H       -2.47075408       1.72807925       0.39921950
H       -4.14359399       1.65956643      -0.20755099
H       -3.85863159       0.75519972      -2.91866254
H       -4.33726341      -0.86100067      -2.30160216
H       -0.11429913      -2.69943444      -1.63690834
H        0.86779081      -3.10309741      -3.09195216
H       -0.91653560      -3.17151876      -3.16517353
H       -0.20183149      -0.00805877      -5.05563857
H       -1.11639942      -1.53750723      -5.06359394
H        0.66758184      -1.55618358      -5.17610397
H        3.53618155       0.99473726      -3.48123832
H        4.15966677      -0.60717782      -2.95814786
H        2.38620865       2.46118827      -1.86180659
H        3.98098551       2.18128749      -1.10612385
H        2.48730052       2.02834709      -0.12527701
H        5.46890382       0.44488788      -0.91435621
H        6.76280945      -0.92603708       0.67132862
H        5.61751291      -2.65151188       2.06405106
H        3.15197757      -2.97661613       1.82789528
H        1.86228762      -1.63605583       0.25296648
