41
Properties=species:S:1:pos:R:3 pbc="F F F"
C        4.69107328      -1.23974703      -0.11783033
C        3.20550482      -1.27659077      -0.44923774
C        2.80625096      -0.02770259      -1.24442501
H        3.04114431       0.84822379      -0.62079876
C        3.40431715       0.08511910      -2.66115920
O        2.26506917       0.01779165      -3.54359625
C        1.18760880       0.00492177      -2.76636570
N        1.36543239       0.00000000      -1.49997104
N       -1.36543239      -0.00000000      -1.50603135
C       -1.19738005      -0.00432517      -2.77428903
N       -0.00240566      -0.00379277      -3.45198788
C        0.03716049      -0.00531170      -4.91250756
O       -2.28464257      -0.00651360      -3.53897518
C       -3.41507937      -0.07522944      -2.64572038
C       -2.80313726       0.04409492      -1.23658176
H       -3.04091006      -0.82384486      -0.60308342
C       -3.18224343       1.30397127      -0.44870868
C       -2.76385521       2.58908946      -1.14831458
C       -4.66417306       1.28344758      -0.10013135
C        2.79105250      -2.57186927      -1.13227030
H        4.96428152      -2.08569199       0.53002622
H        4.95495975      -0.31334988       0.41504975
H        5.32095702      -1.30772779      -1.02175987
H        2.64803034      -1.17980207       0.49821856
H        4.08067588      -0.73942589      -2.92553919
H        3.91320168       1.04118950      -2.84693021
H       -0.98948829      -0.03715445      -5.28471019
H        0.58983654      -0.88211903      -5.27401092
H        0.53556563       0.90169177      -5.27941639
H       -3.92159765      -1.03427658      -2.82313808
H       -4.09683959       0.74575609      -2.90691759
H       -2.61555284       1.21104955       0.49369694
H       -3.27920600       2.72721678      -2.11473094
H       -1.67850321       2.61236692      -1.32979378
H       -3.00817101       3.46244737      -0.52568475
H       -5.30385031       1.34803143      -0.99740164
H       -4.92257995       2.13807154       0.54239624
H       -4.92961043       0.36464058       0.44495856
H        3.29821600      -2.71524952      -2.10227921
H        1.70423571      -2.60586694      -1.30293990
H        3.04889518      -3.43702965      -0.50367256
