47
Properties=species:S:1:pos:R:3 pbc="F F F"
C        0.03505551       0.00196348      -4.89432250
N       -0.00172465      -0.01259575      -3.43389239
C       -1.19373186      -0.10471862      -2.75726934
N       -1.37526156       0.00000000      -1.49415736
C       -2.81902854      -0.03114449      -1.24710581
H       -2.99696676      -0.75415947      -0.43637606
C       -3.35684308      -0.53437283      -2.59510006
O       -2.26732124      -0.30753011      -3.51459970
C       -3.36105770       1.34958305      -0.79920007
C       -3.14786432       2.40428692      -1.88630033
C       -4.85362101       1.18718768      -0.50196639
C       -2.64720117       1.79377822       0.47951773
N        1.37526156      -0.00000000      -1.48785081
C        1.18389343       0.09725825      -2.74955280
O        2.24642122       0.30672374      -3.51945436
C        3.34420102       0.54038908      -2.61127815
C        2.82090180       0.04359239      -1.25413735
H        3.00069247       0.77351290      -0.45005873
C        3.37556358      -1.33046927      -0.80113801
C        4.86928858      -1.15648483      -0.51676488
C        2.67419297      -1.77062873       0.48592349
C        3.16079289      -2.39380523      -1.87954751
H       -0.97250995      -0.19997009      -5.26579600
H        0.72525038      -0.76891788      -5.25934587
H        0.37467989       0.98142457      -5.25772419
H       -4.23136709       0.00820181      -2.97283446
H       -3.56864298      -1.61409527      -2.59390046
H       -3.53131979       3.37829431      -1.54640439
H       -3.66653702       2.16077049      -2.82751832
H       -2.07629550       2.53665365      -2.10309547
H       -5.27763367       2.14144564      -0.15471478
H       -5.01698241       0.44014328       0.29031802
H       -5.43140906       0.87815096      -1.38814293
H       -3.11932248       2.70787439       0.87193400
H       -1.58491562       2.02734011       0.30640364
H       -2.68140308       1.01538495       1.25548592
H        3.55422934       1.62036816      -2.61850422
H        4.21659153      -0.00251344      -2.99355094
H        5.03395104      -0.40364902       0.26976032
H        5.43782494      -0.84878246      -1.40938303
H        5.30247535      -2.10581494      -0.16733451
H        2.70888862      -0.98665876       1.25621651
H        3.15519613      -2.67899464       0.88081984
H        1.61215301      -2.01182099       0.32201773
H        3.67187200      -2.15388597      -2.82587739
H        2.08850051      -2.53384997      -2.08791043
H        3.55220432      -3.36325297      -1.53571895
