31
Properties=species:S:1:pos:R:3 pbc="F F F"
C        4.93415850      -1.10281991      -1.48149914
C        3.41856935      -1.30352956      -1.42963359
C        2.75231357       0.07342664      -1.67345398
H        3.10560072       0.76862261      -0.89557201
C        2.92250615       0.65481383      -3.09576126
O        1.60455615       0.55553423      -3.69240485
C        0.78919068       0.24774080      -2.69837355
N        1.30402062       0.00000000      -1.55588529
N       -1.30402062      -0.00000000      -1.70694711
C       -0.66776053       0.19828611      -2.87026538
C       -1.33488657       0.32576013      -4.08143878
C       -2.72781142       0.23014026      -4.06229131
C       -3.38121998       0.01499249      -2.85311993
C       -2.62572577      -0.09418094      -1.68196145
C        2.98061018      -2.32034125      -2.48473007
C        3.02212895      -1.81387105      -0.04221016
H        5.45166322      -2.05737448      -1.30246701
H        5.26409324      -0.39172917      -0.70819827
H        5.27439990      -0.72606706      -2.45987725
H        3.62144060       0.09817505      -3.73204991
H        3.20177178       1.71832454      -3.09565182
H       -0.77400754       0.49140227      -5.00225466
H       -3.29651276       0.32238972      -4.99028211
H       -4.46847021      -0.06675533      -2.80597628
H       -3.05315125      -0.26897708      -0.68714418
H        3.43729615      -3.29955771      -2.27565655
H        3.28121661      -2.03443370      -3.50531169
H        1.88843802      -2.46074331      -2.47147966
H        3.59754421      -2.71986553       0.20281987
H        1.95427906      -2.07716752       0.00113008
H        3.19285845      -1.05651526       0.73632766
