28
Properties=species:S:1:pos:R:3 pbc="F F F"
C        2.96547003      -1.87946166      -0.10638672
C        3.46067097      -1.22402464      -1.38928536
C        2.75141039       0.10868346      -1.67114393
H        3.07381255       0.84839887      -0.91958537
C        2.92692996       0.61233590      -3.12460156
O        1.59747106       0.55178995      -3.69996429
C        0.78706087       0.24148646      -2.70251890
N        1.30475335       0.00000000      -1.56053995
N       -1.30475335      -0.00000000      -1.70579857
C       -0.67033557       0.19107515      -2.87125374
C       -1.33924286       0.31297769      -4.08202338
C       -2.73226031       0.21973098      -4.06027928
C       -3.38386192       0.01178657      -2.84894054
C       -2.62667049      -0.09250222      -1.67850363
C        4.96748967      -0.99558946      -1.35088601
H        3.55770848      -2.78040044       0.11378043
H        1.91177429      -2.18552351      -0.18649897
H        3.03371335      -1.18760800       0.74682746
H        3.22845586      -1.89646205      -2.23818683
H        3.58163863      -0.02919713      -3.73071385
H        3.27017048       1.65392364      -3.19729380
H       -0.77962515       0.47292289      -5.00462037
H       -3.30228567       0.30811561      -4.98782893
H       -4.47115579      -0.06794752      -2.79940438
H       -3.05251285      -0.26122678      -0.68190056
H        5.23696128      -0.34817452      -0.50096890
H        5.34728156      -0.52003019      -2.26973493
H        5.50328411      -1.94834023      -1.22889794
