30
Properties=species:S:1:pos:R:3 pbc="F F F"
C       -3.08190806      -0.58838273      -3.63922446
C       -2.16800406      -0.96118442      -4.61926752
C       -0.80587793      -0.85779025      -4.34416318
C       -0.43402157      -0.37802906      -3.09048761
N       -1.30877173      -0.00000000      -2.15388379
C       -2.60120048      -0.11287083      -2.41578988
N        1.30877173       0.00000000      -1.47554226
C        0.97134406      -0.26637722      -2.67712186
O        1.94896032      -0.43498928      -3.55844807
C        3.20077944      -0.31333618      -2.83551725
C        2.75855290       0.05958600      -1.39100055
H        3.04653784       1.06910552      -1.05711223
C        3.32058995      -1.02793146      -0.52166980
C        3.96621789      -1.99732252      -1.28941590
C        4.52173910      -3.11381484      -0.66793261
C        4.40723950      -3.24085160       0.71655118
C        3.74948951      -2.26840784       1.47527943
C        3.19773256      -1.14681306       0.85952922
C        3.95225687      -1.64983710      -2.75568564
H       -4.15715924      -0.66211608      -3.81219345
H       -2.50978023      -1.33614680      -5.58641967
H       -0.04349537      -1.14624822      -5.06901861
H       -3.28853924       0.18310395      -1.61766987
H        5.03391360      -3.88261210      -1.25199676
H        4.83382540      -4.11498736       1.21423441
H        3.66322808      -2.39073923       2.55705226
H        2.67266915      -0.37852050       1.43450386
H        3.43001130      -2.40843655      -3.36033594
H        4.96985032      -1.56020279      -3.16768040
H        3.77453351       0.47205751      -3.34347760
