29
Properties=species:S:1:pos:R:3 pbc="F F F"
C        4.08764550      -4.01624386      -0.79009150
C        3.88466098      -3.08871367       0.23127078
C        3.47381489      -1.79230460      -0.06777442
C        3.26570064      -1.41004621      -1.39784581
C        3.45140140      -2.34918065      -2.41664057
C        3.86589449      -3.64543145      -2.11474869
C        2.75753845      -0.00970924      -1.67493277
H        3.15423881       0.67966292      -0.91581507
C        2.94353832       0.52397353      -3.10782679
O        1.63900199       0.37204454      -3.72337137
C        0.80204273       0.16778430      -2.71752915
N        1.29869400      -0.00000000      -1.55315469
N       -1.29869400       0.00000000      -1.72891099
C       -0.65360152       0.13382975      -2.89709436
C       -1.31107683       0.22126450      -4.11685126
C       -2.70589411       0.15587290      -4.10243402
C       -3.36930409       0.01008302      -2.88871735
C       -2.62227836      -0.06324131      -1.70901690
H        4.41269589      -5.03208234      -0.55309235
H        4.04307721      -3.37655458       1.27313198
H        3.27290074      -1.06964735       0.72910281
H        3.26676896      -2.08326272      -3.46097507
H        4.01293729      -4.36925554      -2.91985163
H        3.67621330      -0.02598264      -3.70904587
H        3.18903245       1.59604495      -3.12450404
H       -0.74189320       0.33400320      -5.04058991
H       -3.26761972       0.21801931      -5.03714676
H       -4.45828931      -0.04587310      -2.84394116
H       -3.05824185      -0.18204142      -0.70932959
