51
Properties=species:S:1:pos:R:3 pbc="F F F"
C        0.16869477      -1.25553316      -4.43380450
C        0.00008276      -0.00129830      -3.55340576
C        1.24847069       0.14146029      -2.72577257
N        1.40702843      -0.00000000      -1.46750093
C        2.84257327       0.06793085      -1.16918086
H        2.96759667       0.78561184      -0.34434553
C        3.41245892       0.59900108      -2.49210848
O        2.34355967       0.40280376      -3.43728262
C        3.39986333      -1.30328372      -0.71109775
C        3.24526320      -2.35704525      -1.80877922
C        4.87875534      -1.10823331      -0.36834464
C        2.65797362      -1.76924571       0.54363648
N       -1.40702843       0.00000000      -1.46760127
C       -1.24849282      -0.14227077      -2.72577950
O       -2.34369551      -0.40334156      -3.43721965
C       -3.41280401      -0.59823644      -2.49202414
C       -2.84263188      -0.06688475      -1.16932169
H       -2.96813269      -0.78413113      -0.34416706
C       -3.39907720       1.30487821      -0.71187494
C       -4.87818879       1.11100652      -0.36942844
C       -2.65715702       1.77073138       0.54287104
C       -3.24342070       2.35811287      -1.80991343
C       -0.16831121       1.25076394      -4.43687635
H        0.26616243      -2.15938317      -3.81500192
H        1.06987185      -1.15457488      -5.05250481
H       -0.70738039      -1.36908960      -5.08508971
H        4.29305397       0.05814198      -2.85959235
H        3.63628670       1.67589720      -2.46132585
H        3.64719296      -3.32191698      -1.46428523
H        3.78059098      -2.09265523      -2.73480849
H        2.18410649      -2.51715388      -2.05479663
H        5.31361763      -2.05444660      -0.01246764
H        5.00104604      -0.36117458       0.43128987
H        5.47470514      -0.78185403      -1.23592694
H        3.13613422      -2.67629886       0.94496892
H        1.60572088      -2.02184070       0.33934311
H        2.65573390      -0.99527609       1.32480151
H       -3.63746550      -1.67494244      -2.46068684
H       -4.29296422      -0.05688865      -2.85986050
H       -5.00121598       0.36431224       0.43042703
H       -5.47417322       0.78477616      -1.23703631
H       -5.31244189       2.05765628      -0.01395555
H       -2.65555055       0.99698527       1.32425604
H       -3.13483824       2.67818264       0.94386851
H       -1.60470759       2.02262527       0.33875464
H       -3.77869036       2.09374493      -2.73598429
H       -2.18208047       2.51734886      -2.05570573
H       -3.64475339       3.32340525      -1.46589752
H        0.70801338       1.36287590      -5.08808069
H       -0.26614347       2.15611238      -3.82032939
H       -1.06924131       1.14820075      -5.05566553
