50
Properties=species:S:1:pos:R:3 pbc="F F F"
C       -0.59257352      -3.51981594      -3.62720747
C       -0.16057114      -3.03121932      -2.23682790
C        0.00880085      -1.58077580      -2.82710513
C       -0.00132125      -2.23655610      -4.23418893
C       -1.20877764      -0.75656900      -2.53471752
N       -1.37139675      -0.00000000      -1.51964101
C       -2.68608144       0.62129250      -1.61112484
H       -3.20230721       0.51041539      -0.64574532
C       -3.34310171      -0.11296073      -2.81053262
H       -4.11648999      -0.84271415      -2.53322553
O       -2.24154399      -0.87371312      -3.36778472
C       -3.83174143       0.94802326      -3.79549477
C       -3.20606953       2.22806261      -3.30817992
C       -2.59869732       2.05706425      -2.06238135
C       -1.97429064       3.11398504      -1.40451644
C       -1.96960330       4.36383262      -2.02237527
C       -2.57576016       4.54463551      -3.26938107
C       -3.19900905       3.48001757      -3.92039586
N        1.37139675       0.00000000      -1.49118941
C        1.26502618      -0.89314781      -2.40022129
O        2.39313075      -1.29747297      -2.97924674
C        3.48121556      -0.70048992      -2.23902012
H        4.18258216      -0.29410316      -2.97803013
C        2.78262040       0.37444153      -1.37336744
H        2.89584794       1.40607870      -1.74640171
C        3.35423649       0.19173886       0.00032110
C        3.12474332       0.96937541       1.12980666
C        3.71544644       0.58298986       2.33094991
C        4.52224864      -0.55556063       2.38657673
C        4.73960273      -1.33545973       1.25088820
C        4.14085322      -0.95893994       0.05304142
C        4.13857593      -1.68817836      -1.26325420
H       -1.68593213      -3.55654198      -3.73193890
H       -0.17239738      -4.47530045      -3.97028616
H        0.81733267      -3.41767177      -1.92130003
H       -0.84186160      -3.11501908      -1.38014985
H        1.02858086      -2.37580009      -4.58501032
H       -0.58427998      -1.71047409      -5.00090168
H       -4.93247000       1.00898740      -3.77542530
H       -3.54577480       0.68215986      -4.82479115
H       -1.50696964       2.94325032      -0.42980531
H       -1.48820081       5.21041629      -1.52707449
H       -2.56209343       5.53110752      -3.73938307
H       -3.67214346       3.62844093      -4.89455508
H        2.46750281       1.84196470       1.08983987
H        3.53792895       1.16813680       3.23562630
H        4.97721841      -0.84727038       3.33608457
H        5.35336718      -2.23766245       1.31018787
H        3.51192510      -2.59234041      -1.18425992
H        5.13863503      -2.00592845      -1.59420118
