56
Properties=species:S:1:pos:R:3 pbc="F F F"
C       -0.93169112      -3.08364610      -5.13902984
C       -1.06825006      -3.18851678      -3.62591906
C       -0.00264217      -2.36624487      -2.91984536
C       -0.03266825      -0.86381493      -3.34322674
C       -0.01742766      -0.73713851      -4.87913327
C       -1.02389935      -1.63380452      -5.59653969
C       -1.25333780      -0.23731799      -2.71310164
N       -1.38775638       0.00000000      -1.46846299
C       -2.72618165       0.53497128      -1.22698534
H       -3.21561778      -0.11391064      -0.48480446
C       -3.35794617       0.54820467      -2.64344846
H       -4.21238258      -0.13049396      -2.76369081
O       -2.30274619       0.02509434      -3.48789433
C       -3.69051621       2.00327223      -2.99373691
C       -3.18611904       2.80413129      -1.82161099
C       -2.68849417       1.97976361      -0.81018061
C       -2.18841100       2.50314935       0.38007170
C       -2.18621314       3.88821151       0.53976610
C       -2.68223932       4.72131026      -0.46677884
C       -3.18960174       4.18704205      -1.65188208
N        1.38775638       0.00000000      -1.48684834
C        1.21177073      -0.26565049      -2.72525183
O        2.26396466      -0.12365236      -3.52273831
C        3.35847864       0.39827595      -2.72719018
H        3.53823634       1.42380326      -3.07920336
C        2.80907813       0.29231420      -1.28493188
H        2.90089262       1.19277792      -0.66033496
C        3.53811925      -0.89720386      -0.70757546
C        3.32179144      -1.51638509       0.52177095
C        4.07915064      -2.64422921       0.83604634
C        5.03248781      -3.13603419      -0.06006767
C        5.25135900      -2.50420665      -1.28432070
C        4.49565443      -1.37841833      -1.60471489
C        4.57876093      -0.51129217      -2.83228706
H       -1.70414147      -3.68906577      -5.63857754
H        0.04221207      -3.50919851      -5.44192674
H       -0.98478039      -4.23558148      -3.29546554
H       -2.07147230      -2.84827075      -3.31438385
H        0.99747206      -2.75664092      -3.17377973
H       -0.10537358      -2.42091779      -1.82544963
H        0.99690981      -1.00712630      -5.20594445
H       -0.16482510       0.31634347      -5.16249255
H       -0.83903322      -1.56295352      -6.68010467
H       -2.04446193      -1.26101558      -5.42826424
H       -4.77540424       2.13383574      -3.13583970
H       -3.21061655       2.28272492      -3.94505594
H       -1.80321004       1.84018955       1.15990364
H       -1.78848359       4.32179168       1.45983245
H       -2.67373612       5.80470019      -0.32406827
H       -3.58001870       4.84553331      -2.43221084
H        2.58267835      -1.10688684       1.21588982
H        3.92479296      -3.14661935       1.79372870
H        5.61543459      -4.02229554       0.20240044
H        6.00384519      -2.88780708      -1.97826284
H        4.56643580      -1.07424094      -3.77813634
H        5.50180543       0.09219622      -2.83046593
