55
Properties=species:S:1:pos:R:3 pbc="F F F"
C        3.46292383      -0.02661303      -2.51750877
O        2.40503519       0.50793313      -3.33868796
C        1.28853675       0.45668583      -2.62315562
N        1.38887278      -0.00000000      -1.43874566
C        2.79921239      -0.28284238      -1.15190656
H        3.10277745       0.47600679      -0.41226242
C        2.93755828      -1.64748817      -0.51935588
C        2.71939112      -1.74266678       0.86051543
C        2.72043787      -2.98438918       1.48938202
C        2.95268671      -4.14287923       0.74989898
C        3.17158824      -4.05520418      -0.62361974
C        3.15453043      -2.81352349      -1.25699468
N       -1.38887278       0.00000000      -1.50521328
C       -1.18718229       0.37010248      -2.71116456
C        0.04621685       1.06204607      -3.22060132
C        0.15229114       1.17217253      -4.75727495
C        0.81123988       2.50819149      -4.96712288
C        0.72983491       3.28943870      -3.81000931
C        0.00516745       2.55364717      -2.72154682
C        1.26480392       4.57335674      -3.78104218
C        1.88542589       5.07022306      -4.92865548
C        1.96496987       4.29180264      -6.08468771
C        1.42706978       3.00365507      -6.11127036
O       -2.20728326       0.24435827      -3.55196037
C       -3.23926338      -0.46174984      -2.83139798
C       -2.80083680      -0.34342385      -1.35983640
H       -2.87165908      -1.29675307      -0.81317000
C       -3.56432738       0.71212802      -0.58066190
C       -4.96002496       0.62530631      -0.52878507
C       -5.70745386       1.56135446       0.18025993
C       -5.06501042       2.59876011       0.85484198
C       -3.67574368       2.68358665       0.81860924
C       -2.92692821       1.74625992       0.10864990
H        4.26564334       0.72009314      -2.47600023
H        3.84292005      -0.93323912      -3.00753658
H        2.51836559      -0.83283616       1.43443454
H        2.52970008      -3.04406350       2.56290502
H        2.95646131      -5.11752750       1.24350735
H        3.34835301      -4.96027266      -1.20964502
H        3.30509643      -2.77042853      -2.33868244
H       -0.85797414       1.16119390      -5.19392549
H        0.71356548       0.33526927      -5.19572814
H       -1.04572425       2.88480865      -2.65157891
H        0.43947028       2.64736259      -1.71277707
H        1.20760537       5.17988810      -2.87388895
H        2.31766041       6.07350440      -4.91953822
H        2.45859884       4.69124269      -6.97374497
H        1.49787933       2.39374175      -7.01546116
H       -3.24403511      -1.50019323      -3.19643722
H       -4.19918600       0.01874464      -3.05336801
H       -5.47602003      -0.19372618      -1.03948728
H       -6.79626183       1.47574829       0.21117534
H       -5.64740797       3.33367131       1.41539180
H       -3.15783239       3.47962973       1.35829294
H       -1.83809808       1.82152995       0.12359625
