55
Properties=species:S:1:pos:R:3 pbc="F F F"
C        3.43632030       0.33722487      -2.57385348
O        2.34029205       0.18284937      -3.49299957
C        1.23602070       0.06239435      -2.76360152
N        1.38837765       0.00000000      -1.49776702
C        2.82279451      -0.01093445      -1.20468957
H        3.00177888       0.76916981      -0.44599791
C        3.28005777      -1.33546005      -0.62817868
C        2.38423728      -2.28975647      -0.14016356
C        2.85441716      -3.47539337       0.42226433
C        4.22151122      -3.72519533       0.50515528
C        5.12271314      -2.77407546       0.02828467
C        4.65333693      -1.58817902      -0.52919112
N       -1.38837765      -0.00000000      -1.46677689
C       -1.26957306      -0.05860145      -2.73453536
C       -0.02686083      -0.02332008      -3.57011999
C        0.06784369      -1.29831186      -4.47594525
C        0.56284382      -0.77906140      -5.79394508
C        0.47591171       0.61311802      -5.85113470
C       -0.08450050       1.17339054      -4.57652747
C        0.86474891       1.30001917      -6.99692348
C        1.34573772       0.57511922      -8.08818223
C        1.43307707      -0.81700229      -8.03070958
C        1.04029110      -1.50412800      -6.88126961
O       -2.40430345      -0.14469195      -3.43341256
C       -3.46976631      -0.30300955      -2.47669800
C       -2.82365215       0.06051846      -1.13525052
H       -3.00361317      -0.69897702      -0.36119867
C       -3.12665871       1.43355457      -0.57769024
C       -2.99151019       1.64599488       0.79863125
C       -3.18282105       2.91838507       1.33247829
C       -3.51120300       3.98757278       0.50086196
C       -3.63955504       3.78338979      -0.87230365
C       -3.44228542       2.51307128      -1.40933123
H        3.78262310       1.37926284      -2.64109477
H        4.23990413      -0.34113644      -2.88562168
H        1.30628435      -2.11850739      -0.17123340
H        2.13564393      -4.20151628       0.80862332
H        4.58619362      -4.65453629       0.94879444
H        6.19850771      -2.95191296       0.09796738
H        5.37327589      -0.84212609      -0.87902066
H       -0.93327157      -1.74520451      -4.58225758
H        0.72107164      -2.06211596      -4.02721734
H       -1.13078932       1.48796114      -4.71500216
H        0.47136373       2.04334670      -4.19633231
H        0.80222295       2.39023254      -7.04224110
H        1.66141141       1.10143981      -8.99194148
H        1.81676663      -1.37232189      -8.88967485
H        1.11418180      -2.59359341      -6.83632351
H       -3.79719368      -1.35258259      -2.51272714
H       -4.30202747       0.34727540      -2.77111006
H       -2.70568574       0.80810518       1.44155259
H       -3.06715449       3.07355798       2.40741921
H       -3.66206241       4.98434599       0.92207198
H       -3.89096093       4.61870219      -1.53028951
H       -3.53193356       2.37306249      -2.49054999
