44
Properties=species:S:1:pos:R:3 pbc="F F F"
C       -0.65807543       0.88626315      -2.60154865
H       -0.45351953       1.81259431      -2.02854321
C        0.71903713       0.23844441      -2.86513762
H        0.51848438      -0.75768765      -3.30431464
C        1.55544677       1.07125967      -3.82850633
C        0.79260209       1.39750623      -5.10649491
C       -0.53215135       2.08263727      -4.80410468
C       -1.39254038       1.22097546      -3.88886646
N        1.33384471       0.00000000      -1.56546977
C        2.58966604       0.06381217      -1.38279671
C        3.20113429      -0.10673095      -0.05754899
C        2.88799080      -1.15351888       0.82515365
C        3.45869349      -1.22930163       2.09180617
C        4.36387115      -0.25357890       2.49461084
C        4.71502836       0.78636437       1.63918428
C        4.13813477       0.84500685       0.37702695
Cl       4.55242283       2.16077976      -0.66877754
Cl       1.79265572      -2.40594947       0.34989481
N       -1.33384471      -0.00000000      -1.67801352
C       -2.53655862      -0.37630316      -1.80921796
C       -3.13898792      -1.34775315      -0.88089680
C       -4.33590045      -1.02815942      -0.22724505
C       -4.92782207      -1.88706678       0.69080025
C       -4.32170591      -3.11175233       0.95122651
C       -3.14714304      -3.47599157       0.30198032
C       -2.56282089      -2.59561497      -0.60159958
Cl      -1.11096601      -3.10025251      -1.40113906
Cl      -5.07018126       0.50990772      -0.54197419
H        2.48646749       0.54052181      -4.08193077
H        1.84611486       2.00257463      -3.31096992
H        0.60241754       0.46594847      -5.66881840
H        1.41703784       2.02949475      -5.75668094
H       -1.07651128       2.30092856      -5.73576332
H       -0.34080079       3.05471364      -4.31737855
H       -1.66161034       0.28342552      -4.40910595
H       -2.33567879       1.73881951      -3.65274464
H        3.27614052       0.31627339      -2.20292305
H        3.17884339      -2.05065204       2.75173279
H        4.80268318      -0.30389772       3.49325921
H        5.41740428       1.56207475       1.94526519
H       -3.18646292       0.00869654      -2.61154502
H       -5.84479925      -1.58556173       1.19778738
H       -4.77177470      -3.79422710       1.67519380
H       -2.66552595      -4.43366215       0.50008566
