46
Properties=species:S:1:pos:R:3 pbc="F F F"
C       -0.69805103       0.33920282      -2.82176715
H       -0.51217434       1.42851246      -2.75039836
C        0.69788393      -0.33838970      -2.82208290
H        0.51205378      -1.42775531      -2.75148171
C        1.46571406      -0.03334986      -4.10233817
C        0.66391509      -0.36855851      -5.35168694
C       -0.66444709       0.37110723      -5.35135282
C       -1.46607078       0.03506547      -4.10212172
N        1.38422807      -0.00000000      -1.59007562
C        2.58628077       0.41140225      -1.54034493
C        3.27565306       0.69449372      -0.27784471
C        2.93083451       0.02769143       0.90658760
C        3.57770339       0.33734366       2.09310225
C        4.58171538       1.31795637       2.10893397
C        4.94726886       1.96977889       0.92175401
C        4.30418422       1.64498307      -0.26397577
C        5.24974715       1.64229418       3.33353981
N        5.79479337       1.90530975       4.32231594
N       -1.38422807      -0.00000000      -1.58993456
C       -2.58629464      -0.41133642      -1.54018523
C       -3.27530347      -0.69501462      -0.27760553
C       -2.93043985      -0.02819361       0.90681229
C       -3.57679234      -0.33831272       2.09347755
C       -4.58030678      -1.31942308       2.10947562
C       -4.94591572      -1.97126558       0.92231545
C       -4.30335971      -1.64599667      -0.26357469
C       -5.24780853      -1.64429184       3.33423967
N       -5.79245100      -1.90772370       4.32313347
H        2.41563025      -0.59124234      -4.10188015
H        1.72390593       1.04088136      -4.11681492
H        0.48060470      -1.45664134      -5.39249575
H        1.25077354      -0.11797686      -6.24866101
H       -1.25143109       0.12112976      -6.24841865
H       -0.48115191       1.45922392      -5.39145401
H       -1.72431125      -1.03914931      -4.11730497
H       -2.41597342       0.59298244      -4.10111974
H        3.17233570       0.58363044      -2.45713240
H        2.17658258      -0.76701295       0.89027372
H        3.31287690      -0.18235290       3.01518655
H        5.73444741       2.72499437       0.93975103
H        4.58786772       2.15193149      -1.18977676
H       -3.17259219      -0.58296132      -2.45693763
H       -2.17653570       0.76682426       0.89033632
H       -3.31193969       0.18135911       3.01557335
H       -5.73270742      -2.72688836       0.94045824
H       -4.58707803      -2.15296223      -1.18935380
