44
Properties=species:S:1:pos:R:3 pbc="F F F"
C       -0.77589170       0.58815947      -2.69098859
H       -0.57239576       1.63592478      -2.39610252
C        0.60199623      -0.06032537      -2.93513426
H        0.42342682      -1.12394236      -3.18969060
C        1.30516560       0.63378187      -4.10277188
C        0.45466755       0.64354153      -5.36466362
C       -0.90600969       1.27438556      -5.10401501
C       -1.62300273       0.57654744      -3.95495387
N        1.37959357       0.00000000      -1.71078029
C        2.54814606      -0.50342507      -1.66490936
C        3.38889348      -0.47883535      -0.47135453
C        3.10541841       0.36517200       0.61421196
C        3.90427006       0.34277638       1.74733022
C        4.99853957      -0.52460371       1.80058315
C        5.30734715      -1.35913209       0.72673812
C        4.50343026      -1.32428833      -0.40616190
Cl       5.99209461      -0.55561822       3.21368025
N       -1.37959357      -0.00000000      -1.51154237
C       -2.54601480      -0.51109870      -1.48768819
C       -3.18657645      -1.01540604      -0.27582160
C       -2.86493148      -0.50891219       0.99225949
C       -3.47629344      -1.01975331       2.12774664
C       -4.41576403      -2.04420969       1.99891804
C       -4.76885805      -2.54413092       0.74473563
C       -4.16208079      -2.01486598      -0.38670035
Cl      -5.17119089      -2.68942600       3.41174610
H        2.27039751       0.14097426      -4.29584634
H        1.53652444       1.66726522      -3.79110376
H        0.31582683      -0.39251903      -5.72166841
H        0.98283554       1.18082238      -6.16774941
H       -1.53013618       1.24144914      -6.01040632
H       -0.77394247       2.34146240      -4.85396446
H       -1.84287564      -0.46800022      -4.24158322
H       -2.59039882       1.06641148      -3.75934696
H        2.98342876      -1.01416157      -2.54365577
H        2.26355052       1.06374599       0.56466976
H        3.68801198       0.99714669       2.59296091
H        6.16854455      -2.02570604       0.78795780
H        4.73633549      -1.97884554      -1.25041017
H       -3.13763116      -0.59029782      -2.41338566
H       -2.16380662       0.32671968       1.08812834
H       -3.23376587      -0.62620650       3.11562840
H       -5.51369062      -3.33716667       0.66738631
H       -4.43488645      -2.40040982      -1.37275509
