44
Properties=species:S:1:pos:R:3 pbc="F F F"
C       -0.69704165       0.32688655      -2.86448875
H       -0.52622917       1.42052330      -2.82121792
C        0.69717807      -0.32659607      -2.86451925
H        0.52636154      -1.42025192      -2.82154009
C        1.46886216      -0.00207043      -4.13793042
C        0.67347261      -0.35190677      -5.38829044
C       -0.67307595       0.35301572      -5.38825752
C       -1.46857730       0.00272019      -4.13809757
N        1.36300305       0.00000000      -1.61009655
C        2.58384136       0.36893924      -1.58796986
C        3.35969065       0.56801678      -0.36815113
C        3.25330629      -0.27304801       0.74580584
C        4.00638746      -0.04350752       1.88996779
C        4.88023127       1.04177175       1.93051344
C        5.01686100       1.88520397       0.82758560
C        4.27122766       1.62609262      -0.31353895
F        4.40283944       2.42560339      -1.36353010
F        5.85292872       2.90580078       0.87427744
F        5.58817755       1.27073792       3.01493692
F        3.89873757      -0.83689457       2.93517858
F        2.44964478      -1.31421576       0.72041125
N       -1.36300305      -0.00000000      -1.61024146
C       -2.58371202      -0.36930185      -1.58828818
C       -3.35956869      -0.56842187      -0.36844691
C       -3.25359658       0.27313160       0.74518618
C       -4.00657344       0.04366465       1.88941424
C       -4.87978446      -1.04211423       1.93041853
C       -5.01595475      -1.88605544       0.82782630
C       -4.27047454      -1.62698988      -0.31341915
F       -4.40161168      -2.42698388      -1.36309807
F       -5.85144349      -2.90710529       0.87492442
F       -5.58758082      -1.27106682       3.01494506
F       -3.89935210       0.83751712       2.93432351
F       -2.45039705       1.31466619       0.71942082
H        2.42698827      -0.54512064      -4.14186694
H        1.71046711       1.07600873      -4.14850329
H        0.51827428      -1.44418539      -5.43285172
H        1.25440295      -0.08403908      -6.28393945
H       -1.25389202       0.08544138      -6.28404850
H       -0.51790522       1.44531549      -5.43241625
H       -1.71010760      -1.07536802      -4.14907470
H       -2.42674860       0.54570712      -4.14190105
H        3.13309948       0.55449926      -2.52193430
H       -3.13285030      -0.55501592      -2.52230377
