41
Properties=species:S:1:pos:R:3 pbc="F F F"
C        1.28692699      -0.53196562      -2.56837335
N        1.47831302      -0.00000000      -1.42756508
C        2.75148272       0.70135698      -1.43317435
H        2.53275942       1.77906280      -1.34801571
C        3.31739006       0.33086622      -2.83017072
O        2.24358402      -0.38037909      -3.47830586
C        3.65278381       0.30660591      -0.29036308
C        3.42920046      -0.86043684       0.44470172
C        4.30477296      -1.21443329       1.47077196
C        5.40883757      -0.41726023       1.76430413
C        5.63237730       0.74968952       1.03374591
C        4.75437590       1.11176040       0.01598499
N       -1.47831302       0.00000000      -1.55159003
C       -1.18776192      -0.55331418      -2.66160565
C        0.07006879      -1.30823811      -2.94991796
O       -2.07090134      -0.44918771      -3.65382600
C       -3.20735626       0.25065929      -3.11775732
C       -2.74710567       0.71178386      -1.71272639
H       -3.44705560       0.37043638      -0.93582431
C       -2.53905157       2.19875541      -1.56282010
C       -3.18104566       2.90771519      -0.54960846
C       -2.94999354       4.27215170      -0.38708619
C       -2.07125644       4.93598150      -1.23835388
C       -1.42634812       4.23278197      -2.25605191
C       -1.65937962       2.87178731      -2.41588547
H        4.18256387      -0.34450364      -2.76321753
H        3.57567703       1.19834173      -3.45147167
H        2.55186068      -1.48168202       0.24069387
H        4.11195036      -2.12098758       2.04917322
H        6.09097990      -0.69818538       2.57022776
H        6.48789211       1.38814836       1.26668902
H        4.92044143       2.03977356      -0.53932461
H        0.11043025      -1.59641784      -4.00541958
H        0.05457811      -2.20525798      -2.30121182
H       -4.05308994      -0.45137491      -3.08326700
H       -3.44969848       1.08365802      -3.79063903
H       -3.85259507       2.38229072       0.13459832
H       -3.44877730       4.81556992       0.41850671
H       -1.88051045       6.00331639      -1.10504813
H       -0.72930124       4.74839818      -2.92074403
H       -1.13327208       2.32227388      -3.20249220
