24
Properties=species:S:1:pos:R:3 pbc="F F F"
C        2.84338432       0.24763141      -3.37619639
C        2.73648847       0.18158940      -1.83045631
H        3.00040924       1.13932055      -1.35215264
N        1.30313787      -0.00000000      -1.63219186
C        0.73474442       0.04797699      -2.77205950
O        1.47088604       0.21187397      -3.85139145
C       -0.73474322      -0.04793580      -2.77206450
N       -1.30313787       0.00000000      -1.63219214
C       -2.73649015      -0.18156747      -1.83046769
H       -3.00042736      -1.13930348      -1.35219136
C       -2.84337783      -0.24756424      -3.37620761
O       -1.47088339      -0.21177219      -3.85140255
C       -3.53443809       0.92451294      -1.16971933
C        3.53446113      -0.92447723      -1.16973467
H        3.36234643      -0.62308525      -3.80428256
H        3.30274600       1.16872956      -3.75763362
H       -3.36236313       0.62315637      -3.80428144
H       -3.30272235      -1.16865848      -3.75768038
H       -3.26801351       1.90703533      -1.58896555
H       -3.31149433       0.91489255      -0.09310021
H       -4.61292470       0.75989788      -1.31149612
H        3.26806352      -1.90700524      -1.58899845
H        3.31152570      -0.91489732      -0.09311379
H        4.61294658      -0.75985080      -1.31150788
