54
Properties=species:S:1:pos:R:3 pbc="F F F"
C       -2.85623177      -0.28594847      -3.34667220
C       -2.73242431      -0.17240988      -1.80562602
H       -3.00144336      -1.10893446      -1.29171028
N       -1.29912658       0.00000000      -1.62420299
C       -0.74068170      -0.05724475      -2.76845138
O       -1.48824411      -0.22927438      -3.83834365
C        0.72898883       0.03476155      -2.77578981
N        1.29912658      -0.00000000      -1.63606700
C        2.73286162       0.15280434      -1.83792640
H        3.02811675       1.09578762      -1.34794573
C        2.83829145       0.23216970      -3.38348707
O        1.46495532       0.17761067      -3.85762866
C        3.50765482      -0.98311229      -1.18940404
C        5.01456307      -0.79647874      -1.26762261
C        5.78807618      -1.92377907      -0.59979461
C        7.29758032      -1.74161844      -0.64985350
C        8.07242212      -2.86824739       0.01965240
C        9.57977454      -2.67881076      -0.03170049
C       -3.50726258       0.97194500      -1.16854933
C       -5.01792836       0.77321710      -1.16821687
C       -5.48453519      -0.46107532      -0.40499540
C       -6.99274714      -0.51873701      -0.21413696
C       -7.46708329      -1.76349809       0.52284824
C       -8.97300143      -1.81031685       0.72399102
H       -3.40235020       0.55744054      -3.79505084
H       -3.29439444      -1.22922302      -3.69795212
H        3.28100147       1.16316676      -3.76050003
H        3.37086614      -0.62607421      -3.81966107
H        3.18286801      -1.01864691      -0.13702264
H        3.20974882      -1.93678357      -1.66122887
H        5.28182506       0.16303080      -0.78992379
H        5.33993541      -0.71118490      -2.32193435
H        5.51820976      -2.88421273      -1.07543989
H        5.46125028      -2.00909428       0.45155549
H        7.56501153      -0.78119451      -0.17254943
H        7.62219469      -1.65119024      -1.70312709
H        7.80152913      -3.82682627      -0.45764858
H        7.74427192      -2.95637508       1.07031742
H        9.94083604      -2.62260948      -1.07145034
H       10.11092310      -3.50786637       0.45983496
H        9.88227341      -1.74606982       0.47105062
H       -3.13904918       1.04835165      -0.13290750
H       -3.24052939       1.91000328      -1.68569340
H       -5.40752029       0.73991356      -2.20355922
H       -5.47549774       1.66862616      -0.71510923
H       -4.97844887      -0.49293299       0.57589440
H       -5.16019046      -1.37812039      -0.92963109
H       -7.49223050      -0.46372233      -1.19943907
H       -7.32419548       0.38019123       0.33715697
H       -6.95814487      -1.81759982       1.50110166
H       -7.13799149      -2.66002381      -0.03228710
H       -9.32457653      -0.94554249       1.30954073
H       -9.28375692      -2.72081032       1.25832081
H       -9.50675742      -1.79183381      -0.24013166
