32
Properties=species:S:1:pos:R:3 pbc="F F F"
C        2.86780172       0.52047675      -3.25643893
C        2.75306105       0.17818422      -1.74838149
H        3.04234808       1.01805981      -1.09629145
N        1.31345736      -0.00000000      -1.58635722
C        0.76811026       0.10240383      -2.73392756
O        1.52333274       0.35364583      -3.78254132
C       -0.69828201      -0.02379123      -2.78046618
N       -1.31345736       0.00000000      -1.66260385
C       -2.73946922      -0.13194286      -1.93506295
H       -3.09771125      -1.02159415      -1.39188054
C       -2.76300785      -0.33064783      -3.47500482
O       -1.38195557      -0.17763959      -3.89301815
C       -3.54018654       1.07449704      -1.48958133
C       -2.91875753       2.43995330      -1.40215753
C       -3.33351968       1.71474938      -0.15600862
C        3.51101981      -1.05527546      -1.33561951
C        3.68305150      -1.35568858       0.12268880
C        4.86026066      -0.91196773      -0.68745222
H        3.52920227      -0.16484985      -3.80340088
H        3.17001406       1.55778261      -3.45532896
H       -3.35405157       0.43559642      -3.99475753
H       -3.09280644      -1.33003253      -3.79084457
H       -4.57353568       1.02696205      -1.85205248
H       -3.50617763       3.29813864      -1.73803651
H       -1.84474602       2.52770626      -1.59106402
H       -4.22222211       2.06434540       0.37502654
H       -2.56126068       1.29134571       0.49312648
H        3.36628583      -1.90928957      -2.00812685
H        3.62912321      -2.40351661       0.42708501
H        3.23181391      -0.64864451       0.82665759
H        5.63081410      -1.64273885      -0.94500252
H        5.23936398       0.10116532      -0.52391915
