50
Properties=species:S:1:pos:R:3 pbc="F F F"
C        3.01065592       0.39962572      -3.08241329
C        2.76329112       0.24340527      -1.56481040
H        2.92012339       1.19285712      -1.02096874
N        1.32774868      -0.00000000      -1.51906537
C        0.85261831       0.19691427      -2.68654178
O        1.68504902       0.48320122      -3.66534574
C       -0.61039360       0.20118981      -2.84420214
N       -1.32774868      -0.00000000      -1.81037769
C       -2.70734286       0.30033841      -2.18698197
H       -3.34834577      -0.55150890      -1.91171735
C       -2.60820208       0.45862769      -3.72355347
O       -1.18760991       0.50053158      -3.99402891
C       -3.20909893       1.55130848      -1.44765927
C       -2.25316331       2.73775589      -1.59632061
C       -2.75274149       3.96588948      -0.84352602
C       -2.98467105       3.63998968       0.62720971
C       -3.97065543       2.48756889       0.77700234
C       -3.49571148       1.25154613       0.02338836
C        3.58238833      -0.84716450      -0.88411579
C        3.12334203      -1.08559905       0.55564521
C        3.99262126      -2.11579630       1.26587641
C        5.46860096      -1.74035914       1.21780392
C        5.93145932      -1.52693253      -0.21851468
C        5.06992616      -0.48996335      -0.92977980
H        3.50753250      -0.48078229      -3.51970422
H        3.55801223       1.30661120      -3.36568087
H       -3.05163773       1.39077454      -4.09914194
H       -3.02676993      -0.39382795      -4.27804565
H       -4.16888929       1.81797754      -1.93379307
H       -2.09530189       2.98155809      -2.66201985
H       -1.26941650       2.46234093      -1.17820883
H       -3.69497951       4.32491716      -1.29780496
H       -2.02264995       4.78423044      -0.94741363
H       -3.34694184       4.53032952       1.16597845
H       -2.02102023       3.35520423       1.08477067
H       -4.95986590       2.80018843       0.39306312
H       -4.11278356       2.23701629       1.83994820
H       -4.24264508       0.44328822       0.09707110
H       -2.58634478       0.85875253       0.50629703
H        3.43113546      -1.78419970      -1.45598877
H        2.07248478      -1.41790510       0.57566914
H        3.14192523      -0.12672343       1.10291109
H        3.85337450      -3.10187505       0.78656070
H        3.65311681      -2.22878269       2.30709231
H        6.08088486      -2.51501615       1.70658719
H        5.62601985      -0.80964325       1.79198595
H        5.87300595      -2.48463461      -0.76675112
H        6.98872727      -1.21825491      -0.24575524
H        5.40881207      -0.37091917      -1.97368193
H        5.20625925       0.49365151      -0.44349799
