50
Properties=species:S:1:pos:R:3 pbc="F F F"
C       -2.85264597      -0.27849278      -3.34875638
C       -2.72862415      -0.10874362      -1.81329837
H       -3.06406246      -1.00196025      -1.26407882
N       -1.29148922      -0.00000000      -1.62869900
C       -0.73580341      -0.03997750      -2.77592629
O       -1.48735531      -0.17220014      -3.84650527
C        0.73567320       0.04043511      -2.77598969
N        1.29148922       0.00000000      -1.62884701
C        2.72856396       0.10936282      -1.81352759
H        3.06356760       1.00276804      -1.26434712
C        2.85245301       0.27913886      -3.34899959
O        1.48708099       0.17328679      -3.84659067
C        3.44884113      -1.10442365      -1.22531711
C        4.93742983      -0.90577999      -1.20894313
C        5.51278066      -0.05856997      -0.25140205
C        6.88113862       0.18187436      -0.24741212
C        7.72732721      -0.41239999      -1.19501384
C        7.14983756      -1.25817469      -2.14500477
C        5.77606901      -1.50174497      -2.15267477
C        9.20648467      -0.15857538      -1.16750594
C       -3.44823500       1.10547354      -1.22512884
C       -4.93692914       0.90763659      -1.20866277
C       -5.51270239       0.06087226      -0.25095380
C       -6.88117375      -0.17872315      -0.24677367
C       -7.72711687       0.41589778      -1.19442194
C       -7.14924761       1.26132889      -2.14445104
C       -5.77530532       1.50405671      -2.15231111
C       -9.20622505       0.16173562      -1.16743986
H       -3.44660125       0.51218199      -3.82760826
H       -3.23926521      -1.25780287      -3.65989120
H        3.44607438      -0.51174237      -3.82792771
H        3.23938444       1.25830793      -3.66017479
H        3.06245157      -1.21841941      -0.20044450
H        3.17492149      -2.00459534      -1.79938965
H        4.86910573       0.40461170       0.50318565
H        7.30735728       0.84215501       0.51339048
H        7.78654041      -1.74065492      -2.89184356
H        5.35432179      -2.18060597      -2.90028872
H        9.42761848       0.91943651      -1.13186022
H        9.70523939      -0.57892023      -2.05203698
H        9.66942051      -0.61181959      -0.27579821
H       -3.06171963       1.21935853      -0.20030145
H       -3.17387269       2.00544930      -1.79929633
H       -4.86924450      -0.40250266       0.50368850
H       -7.30774471      -0.83852736       0.51425377
H       -7.78577486       1.74427473      -2.89113223
H       -5.35326425       2.18275415      -2.89990718
H       -9.66723281       0.60086438      -0.26777857
H       -9.42715195      -0.91680478      -1.14809562
H       -9.70690918       0.59541235      -2.04438789
