60
Properties=species:S:1:pos:R:3 pbc="F F F"
C        2.85254108       0.28108923      -3.35201729
C        2.72936832       0.12281799      -1.81527885
H        3.05560119       1.02376869      -1.27292103
N        1.29327605      -0.00000000      -1.62935500
C        0.73609499       0.04620152      -2.77563238
O        1.48510272       0.18847486      -3.84679019
C       -0.73502001      -0.03582689      -2.77642544
N       -1.29327605       0.00000000      -1.63035417
C       -2.72965171      -0.11334047      -1.81890190
H       -3.06401674      -1.01349471      -1.28051718
C       -2.85074727      -0.26629637      -3.35627866
O       -1.48394409      -0.16494589      -3.84970786
C       -3.45532630       1.09062795      -1.21891553
C       -4.94714291       0.91889666      -1.28722112
C       -5.56595097       0.02944053      -0.41703564
C       -6.94972262      -0.18738644      -0.50551649
C       -7.70537957       0.48612526      -1.46436491
C       -7.07607934       1.38521632      -2.33577750
C       -5.69882104       1.60388725      -2.25529800
O       -7.88877445       1.99638239      -3.22280853
C       -7.33892068       2.92233714      -4.11520599
O       -7.46868692      -1.06055910       0.37707404
C       -8.84688729      -1.30387292       0.35835253
C        3.46347095      -1.07719146      -1.21821507
C        4.95240313      -0.87720974      -1.25700908
C        5.54088890      -0.00054794      -0.34330030
C        6.91534044       0.24118647      -0.39908966
C        7.71177432      -0.38815417      -1.36730976
C        7.11153804      -1.26591744      -2.27675325
C        5.73482510      -1.50879728      -2.22406798
O        7.79302525      -1.92166736      -3.23916994
C        9.17646656      -1.74039024      -3.33659648
O        7.40698593       1.09494155       0.51975029
C        8.77891279       1.36410921       0.54003063
H        3.43670358      -0.52027644      -3.82536709
H        3.25154215       1.25295378      -3.67012334
H       -3.43927633       0.53336598      -3.82711196
H       -3.24489181      -1.23917569      -3.67766878
H       -3.11586731       1.15954027      -0.17374735
H       -3.13905380       2.00519821      -1.74607196
H       -4.99527376      -0.49576614       0.35237561
H       -8.78142426       0.35354722      -1.56612902
H       -5.20162317       2.31559043      -2.91495103
H       -8.16631656       3.29663308      -4.73141906
H       -6.58463734       2.45941181      -4.77662761
H       -6.87242167       3.77418753      -3.58946709
H       -9.04890919      -2.02976334       1.15603398
H       -9.17569876      -1.73132007      -0.60548558
H       -9.42811999      -0.38574489       0.55481957
H        3.10921903      -1.16457024      -0.17945642
H        3.17383569      -1.99011685      -1.76266915
H        4.94544156       0.48959720       0.43039543
H        8.78230037      -0.20141473      -1.40588402
H        5.30573919      -2.21453145      -2.93811319
H        9.51869009      -2.36657770      -4.17035153
H        9.69926142      -2.05726055      -2.41665597
H        9.44105319      -0.68930953      -3.55032003
H        8.94937542       2.06667178       1.36555103
H        9.12222610       1.83192742      -0.40017323
H        9.37541508       0.45224182       0.72128503
