52
Properties=species:S:1:pos:R:3 pbc="F F F"
C       -2.84350826      -0.23956212      -3.36642422
C       -2.72958218      -0.07648667      -1.83137761
H       -3.09836544      -0.96058248      -1.28977044
N       -1.29230216       0.00000000      -1.63200625
C       -0.72930008      -0.02651729      -2.77676660
O       -1.47507379      -0.13331854      -3.85429354
C        0.74216563       0.04546949      -2.77002752
N        1.29230216       0.00000000      -1.62043444
C        2.73190352       0.09607796      -1.79683142
H        3.07368801       0.98096194      -1.23888708
C        2.86368366       0.27733361      -3.33037914
O        1.49979830       0.17453267      -3.83625059
C        3.43391728      -1.12545897      -1.19968132
C        4.91241346      -0.94190728      -1.11774110
C        5.57560548      -0.29641437      -0.10042773
N        6.91813376      -0.24336502      -0.37755174
H        7.62009777       0.16010428       0.22512490
C        7.16310339      -0.85503573      -1.57968782
C        5.91313964      -1.31156443      -2.08289792
C        5.88834462      -1.99795851      -3.30944859
C        7.07581543      -2.19590227      -3.99837535
C        8.30021951      -1.72589729      -3.48515848
C        8.36139068      -1.05499333      -2.27171912
C       -3.43187749       1.15997537      -1.26303554
C       -4.91298521       1.02693701      -1.35371775
C       -5.71833964       0.11580295      -0.58211784
C       -7.05782387       0.26556858      -1.02622961
N       -7.05612984       1.21891246      -2.01413002
H       -7.87429478       1.55987827      -2.49614228
C       -5.77372469       1.67299136      -2.20951775
C       -8.10746200      -0.47636440      -0.47513375
C       -7.79187815      -1.37502711       0.53478820
C       -6.46900298      -1.53065528       0.99372802
C       -5.42732091      -0.79353148       0.44972048
H       -3.43675672       0.55484300      -3.84097132
H       -3.22983394      -1.21664308      -3.68527596
H        3.46120165      -0.50575619      -3.81533621
H        3.24954325       1.26036897      -3.63082144
H        3.01046520      -1.24919158      -0.19151160
H        3.17437890      -2.02218440      -1.78680509
H        5.16251830       0.13084196       0.81278504
H        4.94877621      -2.38780733      -3.71091238
H        7.06625422      -2.73052891      -4.95091254
H        9.21957259      -1.89776795      -4.04954073
H        9.31358057      -0.69865960      -1.87174267
H       -3.10529862       1.24635597      -0.21393322
H       -3.08065562       2.05539722      -1.80170329
H       -5.56406600       2.44961260      -2.94397294
H       -9.13632631      -0.35314744      -0.82138719
H       -8.58864034      -1.96989304       0.98770939
H       -6.26318600      -2.23943343       1.79887777
H       -4.40453274      -0.90152162       0.82460350
