50
Properties=species:S:1:pos:R:3 pbc="F F F"
C       -2.83793375      -0.19896163      -3.38439775
C       -2.72975080      -0.07466765      -1.84438964
H       -3.09844309      -0.97499207      -1.32970536
N       -1.29313291      -0.00000000      -1.63655652
C       -0.72552615      -0.01420249      -2.77962200
O       -1.46527037      -0.10494884      -3.86145535
C        0.74625681       0.05546861      -2.76743382
N        1.29313291       0.00000000      -1.61653130
C        2.73255505       0.10502476      -1.78774952
H        3.06594327       0.99296871      -1.22914209
C        2.86906830       0.28911676      -3.32109291
O        1.50621628       0.19327996      -3.82999554
C        3.43657822      -1.11115981      -1.18284774
C        4.91941484      -0.91817710      -1.10936692
C        5.52090436      -0.19053510      -0.12268954
S        7.23179389      -0.03503048      -0.31082269
C        7.19443367      -0.97460172      -1.77155670
C        5.87572343      -1.39112093      -2.08161394
C        5.67552350      -2.18488862      -3.22631458
C        6.75404204      -2.52574896      -4.02727918
C        8.05190877      -2.09189619      -3.70741120
C        8.28307542      -1.31920792      -2.57854969
C       -3.43262689       1.14696116      -1.24502794
C       -4.91750551       1.03274994      -1.36979052
C       -5.70774698       0.11044137      -0.58627203
C       -7.07457243       0.14233350      -0.95028136
S       -7.36525963       1.29806377      -2.21832085
C       -5.68534168       1.71722194      -2.26712653
C       -8.02034804      -0.67014417      -0.31805893
C       -7.58587728      -1.51979528       0.68976613
C       -6.23373739      -1.55686307       1.07092334
C       -5.29383893      -0.75091569       0.44697016
H       -3.41358783       0.61614504      -3.84509816
H       -3.24002844      -1.16096050      -3.72790765
H        3.46434825      -0.49428759      -3.80854955
H        3.25926071       1.27189096      -3.61632262
H        3.02026446      -1.22255148      -0.17031147
H        3.17664465      -2.01508199      -1.75701547
H        5.01804000       0.27018411       0.72960996
H        4.67472158      -2.54802936      -3.47436648
H        6.59636772      -3.14473176      -4.91330562
H        8.88979048      -2.37143769      -4.34990958
H        9.29243589      -0.98931700      -2.32362166
H       -3.12414525       1.19809424      -0.18820900
H       -3.06818774       2.05623999      -1.74887579
H       -5.34777817       2.48417273      -2.96512655
H       -9.07287991      -0.63423797      -0.60681082
H       -8.30843459      -2.16282445       1.19765524
H       -5.91827390      -2.22411437       1.87595241
H       -4.24620691      -0.77232744       0.76543412
