58
Properties=species:S:1:pos:R:3 pbc="F F F"
C       -2.81847595      -0.88460722      -3.22451151
C       -2.71473250      -0.41534375      -1.74414203
H       -2.87241351      -1.23919915      -1.02616234
N       -1.32547936      -0.00000000      -1.59815687
C       -0.71920910      -0.16956067      -2.72119108
N       -1.45728802      -0.67729807      -3.73351080
C       -0.95532668      -1.23233641      -4.92608731
C       -1.59011952      -0.96450167      -6.14212781
C       -1.07937321      -1.49818121      -7.32092460
C        0.06759216      -2.29132471      -7.29723111
C        0.69338921      -2.56621903      -6.08235082
C        0.17823607      -2.05248378      -4.89572358
C        0.71927071       0.16948525      -2.72116092
N        1.32547936       0.00000000      -1.59807514
C        2.71475770       0.41524407      -1.74401997
H        2.87246743       1.23913821      -1.02608966
C        2.81859836       0.88439825      -3.22442049
N        1.45743048       0.67712485      -3.73348121
C        0.95557797       1.23204343      -4.92614468
C        1.59048175       0.96411737      -6.14210419
C        1.07984289       1.49767807      -7.32099739
C       -0.06714466       2.29080299      -7.29748088
C       -0.69305260       2.56579855      -6.08268117
C       -0.17799763       2.05217275      -4.89596841
C        3.69217378      -0.71676536      -1.40128358
C        3.35971563      -1.37433198      -0.06809814
C        5.12003294      -0.18293605      -1.41724047
C       -3.69222209       0.71661828      -1.40150842
C       -3.35985622       1.37424428      -0.06832387
C       -5.12004913       0.18271813      -1.41751153
H       -3.54272481      -0.27663986      -3.79170781
H       -3.09677790      -1.94354716      -3.33454996
H       -2.46747493      -0.31567451      -6.16105308
H       -1.57438961      -1.27907167      -8.26950652
H        0.46882844      -2.70245612      -8.22603743
H        1.58033394      -3.20331159      -6.05303547
H        0.64398986      -2.29607924      -3.93782230
H        3.54284381       0.27636253      -3.79153419
H        3.09695132       1.94332114      -3.33451203
H        2.46784902       0.31528902      -6.16088891
H        1.57494365       1.27849507      -8.26951546
H       -0.46829839       2.70184226      -8.22636455
H       -1.58001017       3.20288299      -6.05350653
H       -0.64385677       2.29585214      -3.93812970
H        3.59233650      -1.47664439      -2.20170316
H        3.30744855      -0.62879534       0.73993436
H        4.12136462      -2.12679595       0.18700485
H        2.38215892      -1.87661156      -0.09701993
H        5.25806656       0.56721688      -0.62188867
H        5.38475478       0.29112574      -2.37631315
H        5.84230305      -0.99358787      -1.24043749
H       -3.59239549       1.47647313      -2.20194884
H       -3.30759929       0.62874217       0.73973363
H       -4.12155024       2.12668514       0.18673314
H       -2.38232686       1.87655170      -0.09721207
H       -5.25808149      -0.56742104      -0.62214333
H       -5.38470573      -0.29139797      -2.37656885
H       -5.84237643       0.99333145      -1.24076451
