64
Properties=species:S:1:pos:R:3 pbc="F F F"
C       -2.78289499      -1.04365337      -3.21126349
C       -2.70485263      -0.43577788      -1.78120603
H       -2.86497009      -1.19107120      -0.99138030
N       -1.31853411       0.00000000      -1.64831672
C       -0.68363455      -0.31183654      -2.72351834
N       -1.39820103      -0.93784946      -3.69016049
C       -0.85897991      -1.69503031      -4.74563566
C        0.24144850      -2.53174636      -4.52654999
C        0.79443213      -3.24411820      -5.58626628
C        0.24267711      -3.15352866      -6.86071453
C       -0.87354525      -2.34219895      -7.06774579
C       -1.42565931      -1.61280094      -6.01904086
C       -1.45146089      -2.20583455      -8.45103680
F       -1.34146502      -3.33897741      -9.14334171
F       -2.74359804      -1.87068549      -8.41376954
F       -0.82204257      -1.25367547      -9.15470031
C        0.76083351      -0.00283595      -2.72550924
N        1.31853411      -0.00000000      -1.56761593
C        2.73303458       0.31335902      -1.71440744
H        2.90603068       1.27285104      -1.19940040
C        2.93380589       0.43365450      -3.25253097
N        1.57066847       0.27224363      -3.77614892
C        1.15897418       0.62363991      -5.07114215
C        1.85208541       0.13454683      -6.17880419
C        1.42019442       0.46030814      -7.46280205
C        0.30137509       1.26798423      -7.65386529
C       -0.37767437       1.76738161      -6.54423158
C        0.05243113       1.46255476      -5.25810665
C        2.18539369      -0.09511964      -8.63468164
F        2.17856619      -1.43522992      -8.63081371
F        1.68598633       0.30739258      -9.79943184
F        3.46839823       0.28006431      -8.58897219
C        3.59822383      -0.74126474      -1.01420471
C        5.07259763      -0.37580683      -1.11100935
C        3.31387895      -2.15242158      -1.50974727
C       -3.69744990       0.71090866      -1.55684464
C       -3.39705572       1.47887833      -0.27610412
C       -5.11984030       0.16224200      -1.55687175
H       -3.46286324      -0.46585436      -3.85973489
H       -3.10130002      -2.09634358      -3.22713841
H        0.65581216      -2.63151853      -3.52071729
H        1.65440069      -3.89352911      -5.40985793
H        0.66920646      -3.71505032      -7.69266600
H       -2.28580594      -0.96540347      -6.19314997
H        3.59651751      -0.35464531      -3.64625033
H        3.33867214       1.40793690      -3.56220464
H        2.71248966      -0.52154517      -6.03727001
H       -0.03174211       1.50262978      -8.66481883
H       -1.24335567       2.41808163      -6.68440187
H       -0.45972809       1.88312040      -4.38975649
H        3.28731042      -0.67441664       0.04228999
H        5.44006303      -0.40968281      -2.15119486
H        5.68584738      -1.07930901      -0.52872028
H        5.26079617       0.63478356      -0.71683619
H        3.56830401      -2.28197636      -2.57633360
H        2.25348573      -2.41394030      -1.37150743
H        3.90956839      -2.88550458      -0.94616209
H       -3.58785824       1.40279368      -2.41545450
H       -3.35171542       0.80128815       0.59009408
H       -4.17088916       2.24040142      -0.09604679
H       -2.42457930       1.98847522      -0.33191461
H       -5.26696893      -0.52332159      -0.70681396
H       -5.36147469      -0.38920982      -2.47994191
H       -5.85245823       0.97695084      -1.45974549
