82
Properties=species:S:1:pos:R:3 pbc="F F F"
C        2.81779945       0.89006324      -3.21837888
C        2.71282107       0.41918593      -1.73887386
H        2.86710049       1.24286039      -1.01989062
N        1.32443849       0.00000000      -1.59577682
C        0.71937576       0.17018175      -2.72022807
N        1.45775812       0.68342278      -3.72858086
C        0.96044632       1.22292015      -4.92974211
C        1.59382726       0.95278753      -6.14156535
C        1.07483704       1.46009743      -7.32932855
C       -0.08980477       2.23475038      -7.35129884
C       -0.69642511       2.51536399      -6.11802465
C       -0.17925318       2.03453679      -4.92275017
C       -0.70623838       2.76992043      -8.64395221
C        0.08143416       2.33234224      -9.87923127
C       -2.14093181       2.23719976      -8.77316152
C       -0.72843414       4.30455930      -8.59743660
C       -0.71938416      -0.17010826      -2.72021793
N       -1.32443849       0.00000000      -1.59574919
C       -2.71279143      -0.41925406      -1.73884215
H       -2.86699579      -1.24299049      -1.01992538
C       -2.81778900      -0.89002583      -3.21837713
N       -1.45777236      -0.68329996      -3.72860514
C       -0.96045376      -1.22267832      -4.92980389
C       -1.59386573      -0.95250777      -6.14160065
C       -1.07484061      -1.45967794      -7.32940745
C        0.08988765      -2.23419930      -7.35144716
C        0.69653196      -2.51487193      -6.11821134
C        0.17932171      -2.03419468      -4.92288582
C        0.70638175      -2.76918452      -8.64415378
C       -0.08135908      -2.33158494      -9.87938472
C        2.14100075      -2.23627691      -8.77333445
C        0.72875628      -4.30382535      -8.59777938
C       -3.69292227       0.71013755      -1.39548192
C       -3.36064876       1.36916982      -0.06298399
C       -5.11946905       0.17274871      -1.40966134
C        3.69290284      -0.71029015      -1.39566409
C        3.36059281      -1.36953023      -0.06326203
C        5.11947203      -0.17296006      -1.40973467
H        3.54220453       0.28232214      -3.78587737
H        3.09666269       1.94893897      -3.32783201
H        2.47978543       0.31543386      -6.16033273
H        1.58976948       1.22065211      -8.25970216
H       -1.59327217       3.13810664      -6.08156817
H       -0.65505497       2.29297224      -3.97361499
H        0.11610227       1.23589387      -9.97413498
H        1.11518816       2.70952494      -9.86194606
H       -0.39937050       2.72807051     -10.78630937
H       -2.14798612       1.13697849      -8.80610609
H       -2.60764445       2.60999664      -9.69842054
H       -2.77339756       2.55310005      -7.93036600
H        0.29071149       4.70909596      -8.50239028
H       -1.31867483       4.67962151      -7.74830748
H       -1.17390314       4.71019551      -9.51949365
H       -3.54224246      -0.28226946      -3.78581864
H       -3.09662979      -1.94889710      -3.32791400
H       -2.47988045      -0.31522797      -6.16030328
H       -1.58978457      -1.22020048      -8.25975384
H        1.59345405      -3.13751721      -6.08180781
H        0.65515975      -2.29265154      -3.97377100
H       -0.11617598      -1.23513939      -9.97418101
H       -1.11506660      -2.70891178      -9.86213993
H        0.39949374      -2.72716654     -10.78650661
H        2.14792015      -1.13604884      -8.80615988
H        2.60774318      -2.60891895      -9.69863543
H        2.77350936      -2.55217861      -7.93056997
H       -0.29033898      -4.70849490      -8.50276571
H        1.31904909      -4.67889278      -7.74868850
H        1.17426125      -4.70931969      -9.51987232
H       -3.59589093       1.46995520      -2.19634276
H       -3.30518414       0.62399809       0.74521002
H       -4.12383817       2.11988471       0.19291096
H       -2.38429721       1.87366276      -0.09360340
H       -5.25456386      -0.57793104      -0.61428066
H       -5.38402683      -0.30193255      -2.36848907
H       -5.84375587       0.98143757      -1.23181290
H        3.59585930      -1.46998413      -2.19663324
H        3.30515910      -0.62448927       0.74504396
H        4.12374541      -2.12032412       0.19250301
H        2.38421708      -1.87396947      -0.09397262
H        5.25458869       0.57759339      -0.61423536
H        5.38406377       0.30185722      -2.36848694
H        5.84371826      -0.98170753      -1.23200312
