64
Properties=species:S:1:pos:R:3 pbc="F F F"
C        2.82621949       0.86240469      -3.24229586
C        2.71601816       0.43227426      -1.75036632
H        2.85158977       1.27968241      -1.05507445
N        1.33134928       0.00000000      -1.60395584
C        0.71830037       0.17575878      -2.72045750
N        1.45250013       0.69921799      -3.73200382
C        0.94838218       1.21623166      -4.93483892
C        1.58513697       0.92947611      -6.14619968
C        1.03267835       1.37132841      -7.34139961
C       -0.15362042       2.10544275      -7.33309915
C       -0.76343821       2.43721587      -6.12316149
C       -0.20943394       2.00450755      -4.92541220
C       -0.82196981       2.46559155      -8.62887341
F        0.05398881       2.60153011      -9.62329327
F       -1.69058333       1.50721911      -8.99824721
F       -1.51738364       3.59974528      -8.53264066
C       -0.71827761      -0.17589704      -2.72045251
N       -1.33134928      -0.00000000      -1.60398417
C       -2.71606035      -0.43217089      -1.75041370
H       -2.85176476      -1.27944095      -1.05496557
C       -2.82618057      -0.86258766      -3.24226414
N       -1.45244476      -0.69948250      -3.73195618
C       -0.94828683      -1.21670193      -4.93469107
C       -1.58497775      -0.93009738      -6.14612031
C       -1.03247914      -1.37215439      -7.34123037
C        0.15378366      -2.10633087      -7.33276082
C        0.76351814      -2.43794846      -6.12274849
C        0.20948597      -2.00502772      -4.92508779
C        0.82218027      -2.46671025      -8.62844656
F       -0.05371052      -2.60258574      -9.62292670
F        1.69098581      -1.50852788      -8.99782274
F        1.51738884      -3.60097577      -8.53203929
C       -3.70993086       0.67135643      -1.36829867
C       -3.38854969       1.28812987      -0.01329112
C       -5.12931954       0.11613290      -1.40557974
C        3.70991752      -0.67108409      -1.36789136
C        3.38840571      -1.28745442      -0.01272893
C        5.12928384      -0.11578819      -1.40517029
H        3.51766307       0.20719724      -3.79884141
H        3.14961877       1.90437589      -3.38087744
H        2.48919015       0.31889395      -6.15565842
H        1.50823467       1.11179366      -8.28825213
H       -1.67014925       3.04503781      -6.11896256
H       -0.66833485       2.28097491      -3.97361084
H       -3.51759807      -0.20747328      -3.79895859
H       -3.14958003      -1.90457783      -3.38067256
H       -2.48899969      -0.31947267      -6.15571157
H       -1.50798334      -1.11274176      -8.28814785
H        1.67020765      -3.04581603      -6.11841741
H        0.66832268      -2.28137964      -3.97322915
H       -3.62095979       1.45975109      -2.14187273
H       -3.33397147       0.51834481       0.77127159
H       -4.15840370       2.02491966       0.26154890
H       -2.41587481       1.80063386      -0.02070683
H       -5.25598878      -0.66646516      -0.64023605
H       -5.38792906      -0.32325726      -2.38264948
H       -5.86333034       0.90831438      -1.19718355
H        3.62105786      -1.45971498      -2.14123728
H        3.33368930      -0.51741481       0.77157835
H        4.15826427      -2.02410463       0.26244105
H        2.41576023      -1.80000775      -0.02010321
H        5.25582720       0.66702791      -0.64003399
H        5.38796329       0.32333758      -2.38234054
H        5.86331144      -0.90787308      -1.19647649
