62
Properties=species:S:1:pos:R:3 pbc="F F F"
C        2.94025374       1.03387554      -3.01879345
C        2.79716163       0.39245834      -1.60000657
H        2.94335477       1.16314735      -0.82290807
N        1.38575406      -0.00000000      -1.50823386
C        0.80244769       0.47596567      -2.55307590
N        1.55056666       1.13368174      -3.44370178
C        0.99612737       1.62869578      -4.68025547
H        1.57624699       2.51635269      -4.97557958
C       -0.45418312       2.14741497      -4.42206420
H       -0.90309739       2.28363350      -5.41729961
N       -1.22085416       1.12621204      -3.72327602
C       -0.64457123       0.48047802      -2.68279732
N       -1.38575406      -0.00000000      -1.75728998
C       -2.76624889       0.32890705      -2.11902777
H       -3.25525656      -0.61363959      -2.42394187
C       -2.63573550       1.26609909      -3.36499202
C       -3.55383878       0.88877422      -0.92965377
C       -2.94902968       2.15927387      -0.34804554
C       -5.01720890       1.07518568      -1.31036042
C       -0.45835465       3.48622236      -3.70842469
C       -0.72213308       4.64823513      -4.44091450
C       -0.70016025       5.89885750      -3.82635893
C       -0.41667650       6.00062209      -2.46510141
C       -0.15883811       4.84754460      -1.72541900
C       -0.18045413       3.59817277      -2.34035633
C        1.05496111       0.61708765      -5.80954389
C        1.06288199      -0.75894420      -5.57014560
C        1.07366646      -1.66047767      -6.63370075
C        1.07732678      -1.19650534      -7.94719619
C        1.07613477       0.17606386      -8.19447026
C        1.06827957       1.07465005      -7.13120736
C        3.73574733      -0.78114232      -1.31400382
C        3.48063804      -1.96988010      -2.23146623
C        5.18956827      -0.32748823      -1.34275793
H        3.51281135       0.39722266      -3.71618811
H        3.41059828       2.02761508      -2.99080425
H       -2.85459204       2.31985873      -3.11757488
H       -3.28602546       0.96012479      -4.19623580
H       -3.47626546       0.11029932      -0.15139163
H       -2.94529959       2.99322809      -1.06981051
H       -1.91925201       2.00339032       0.00588153
H       -3.53641306       2.48499386       0.52323983
H       -5.14043023       1.85745395      -2.07906963
H       -5.60876494       1.38557286      -0.43641453
H       -5.46040739       0.14526335      -1.70127415
H       -0.95388281       4.57216475      -5.50787062
H       -0.91316892       6.79610972      -4.41228698
H       -0.40377741       6.97919215      -1.97940954
H        0.05987035       4.89660038      -0.65623039
H        0.02217956       2.73427396      -1.70247835
H        1.07055890      -1.14163490      -4.54700666
H        1.08080549      -2.73386433      -6.43105939
H        1.08783614      -1.90404629      -8.77933709
H        1.08959151       0.54865276      -9.22134443
H        1.07738048       2.15080809      -7.33036319
H        3.49396274      -1.09299153      -0.28302638
H        3.71179401      -1.73625560      -3.28442586
H        2.42957863      -2.29116175      -2.17573285
H        4.11127595      -2.82456550      -1.94461682
H        5.49612842      -0.01328766      -2.35465158
H        5.86139996      -1.14451428      -1.04033979
H        5.36032295       0.51897836      -0.65970333
