45
Properties=species:S:1:pos:R:3 pbc="F F F"
C       -2.93884592      -0.15197317      -3.27309278
C       -2.73293935      -0.01935545      -1.74022322
H       -3.11233169      -0.89543737      -1.19266767
N       -1.28499621       0.00000000      -1.59447485
C       -0.74465244       0.07133213      -2.76170890
N       -1.59890980       0.09049610      -3.80624673
C       -1.28934574      -0.02505718      -5.20697957
C       -0.06548318       0.76923516      -5.63756008
C        1.28448671       0.21561732      -5.21046417
N        1.56857321       0.34858637      -3.80422535
C        0.73132739       0.13016246      -2.76571674
N        1.28499621       0.00000000      -1.61002759
C        2.72805712       0.11445541      -1.75656119
H        3.02641373       1.04287589      -1.24102360
C        2.93358841       0.22389335      -3.29112323
C        3.45725122      -1.04155706      -1.06245888
C        3.00654462      -2.40575206      -1.56398979
C        4.96501297      -0.85662971      -1.15904725
C       -3.35500260       1.22610683      -1.09037923
C       -2.84260206       2.52512929      -1.69615211
C       -4.87444979       1.13941728      -1.10842658
H       -3.65359355       0.58377672      -3.67642730
H       -3.28713562      -1.15826600      -3.56645672
H       -2.16376447       0.35773749      -5.75539036
H       -1.17714376      -1.08783438      -5.50484440
H       -0.16454770       1.81168107      -5.29231810
H       -0.06679416       0.79748312      -6.73802520
H        2.07197762       0.76863579      -5.74552230
H        1.37696444      -0.84295603      -5.53062561
H        3.41184868      -0.67974732      -3.71239034
H        3.53852944       1.09432145      -3.58743989
H        3.15605995      -0.94109945      -0.00576136
H        3.27007017      -2.57280128      -2.62316354
H        1.91808597      -2.52902114      -1.45749280
H        3.48910237      -3.20616671      -0.98363594
H        5.32367362      -0.92453599      -2.20100151
H        5.48995330      -1.63478003      -0.58518840
H        5.27488572       0.11989694      -0.75557627
H       -3.01566662       1.16648861      -0.04190986
H       -3.13621702       2.63677468      -2.75431574
H       -1.74579654       2.59170763      -1.63286682
H       -3.25334372       3.39002056      -1.15418906
H       -5.27973289       1.16489415      -2.13488661
H       -5.31729769       1.98751558      -0.56528073
H       -5.22686769       0.21463136      -0.62619813
