51
Properties=species:S:1:pos:R:3 pbc="F F F"
C        2.89941246       0.35776800      -3.27746981
C        2.73856680       0.04358016      -1.76661896
H        3.13057909       0.84538824      -1.12072783
N        1.29477937       0.00000000      -1.58878961
C        0.73565533      -0.01360012      -2.74865870
N        1.56812673       0.06066281      -3.80702681
C        1.20847100       0.23402965      -5.18794046
C        0.08378231      -0.68868514      -5.69278931
C       -1.30090722      -0.24324174      -5.19634015
N       -1.55504308      -0.37999222      -3.78542179
C       -0.73497282      -0.11356121      -2.74709707
N       -1.29477937      -0.00000000      -1.59206164
C       -2.73778781      -0.09623691      -1.75330020
H       -3.08650315      -0.90505228      -1.09226804
C       -2.91736229      -0.45610796      -3.25284574
C       -3.43161421       1.21245825      -1.33441403
C       -3.30267900       1.46344477       0.16300083
C       -2.92431217       2.40965082      -2.13107134
C        0.05810898      -0.54800500      -7.21784612
C        0.35689438      -2.14274469      -5.31043049
C        3.39700980      -1.28670514      -1.35630578
C        4.91314600      -1.12799377      -1.35331202
C        2.89459364      -1.79000948      -0.00847001
H        3.65977261      -0.27377690      -3.76282504
H        3.15645485       1.41528572      -3.46968074
H        2.11296501       0.01291261      -5.77536261
H        0.94427892       1.28865111      -5.40779728
H       -2.05395088      -0.86087314      -5.71128289
H       -1.48101329       0.80185672      -5.52132932
H       -3.57652999       0.25762766      -3.77530820
H       -3.32542277      -1.46856702      -3.40749217
H       -4.50196304       1.06063329      -1.57022351
H       -2.26083253       1.68148994       0.44406717
H       -3.60246117       0.58776032       0.75482098
H       -3.91863514       2.32571997       0.46046283
H       -1.86027929       2.59308873      -1.91243533
H       -3.47825546       3.31909856      -1.85544039
H       -3.03357502       2.28058086      -3.22041100
H       -0.10165958       0.49763808      -7.52516067
H       -0.74830303      -1.15539069      -7.65518995
H        1.00806406      -0.88816996      -7.65630530
H        0.33209065      -2.30573561      -4.22425905
H        1.34664508      -2.45921367      -5.67342721
H       -0.39596145      -2.80515633      -5.76400962
H        3.12260254      -2.02961354      -2.13104822
H        5.22268211      -0.42004908      -0.56755791
H        5.30429974      -0.75531891      -2.31383444
H        5.40596527      -2.08984961      -1.14828725
H        2.99950148      -1.01942568       0.77074413
H        3.45869249      -2.68457226       0.29640978
H        1.82936008      -2.06319690      -0.03853742
