14
Properties=species:S:1:pos:R:3 pbc="F F F"
C       -0.84430332      -0.25481600      -2.59919347
C        0.65531616      -0.54830800      -2.67896476
C        1.29879946      -0.08282900      -3.97548224
C        1.08000450       1.38958800      -4.28152461
H        1.51977310       0.75951500      -1.64580369
H        0.70254865      -1.50455200      -2.64808630
H        0.97583891      -0.55461500      -4.68942194
H        2.20518860      -0.23302400      -3.95371258
N        1.31138130      -0.00000000      -1.47294279
O       -1.31138130       0.00000000      -1.44100132
O       -1.54458960      -0.33706100      -3.61576572
O        0.67396906       2.12512100      -3.36643072
O        1.32908522       1.77652600      -5.45363193
H        2.03213488      -0.45669800      -1.29871478
