26
Properties=species:S:1:pos:R:3 pbc="F F F"
O        2.29207202      -0.44501100      -3.37785391
N        1.37490654      -0.00000000      -1.38889042
C        1.17644362      -0.34150300      -2.62088690
C        2.81350101       0.28650600      -1.19685449
H        3.16175721      -0.24765100      -0.45226610
C        3.42026478      -0.20019100      -2.50788696
H        3.92970356      -1.01362000      -2.36928229
H        4.00577003       0.47461000      -2.88615558
C        3.04735456       1.76461500      -0.92372506
H        2.83595140       2.27532100      -1.72099473
C        4.48564009       2.04166800      -0.51836218
H        5.07898402       1.71559800      -1.19948687
O       -1.37490654       0.00000000      -1.32358110
C       -1.30057335      -0.35131200      -2.58199880
C       -2.48724879      -0.51734100      -3.31211858
H       -3.30001445      -0.33598200      -2.89798728
C       -2.48462909      -0.94075900      -4.62492789
H       -3.28981590      -1.04287600      -5.07877206
C       -1.28627011      -1.21531800      -5.27367161
H       -1.28523033      -1.52365100      -6.15068747
C       -0.11673053      -1.03078800      -4.60663085
H        0.68567394      -1.20145300      -5.04604053
C       -0.08166786      -0.58796100      -3.27030777
H        4.61160208       2.98712800      -0.40962044
H        2.45312002       2.05728500      -0.21540409
H        4.67556823       1.59571600       0.31102792
