28
Properties=species:S:1:pos:R:3 pbc="F F F"
N        1.38945239       0.00000000      -1.71201455
C        2.81510657       0.34888400      -1.81026883
C        2.44209183      -1.06202000      -1.86377075
H        2.50911845      -1.52484800      -2.73479197
C        3.33182820       1.02274700      -3.07426530
H        4.31174895       1.04217500      -3.05564201
H        2.98918779       1.93928600      -3.11899721
H        3.02951720       0.52150400      -3.85836455
C        3.39997932       0.91811300      -0.54398046
H        3.06683729       0.41228500       0.22641407
H        3.13826527       1.85802200      -0.45631499
H        4.37799241       0.85291700      -0.57756772
C        0.52201809       0.22765700      -2.88026416
H        0.96817981      -0.10806900      -3.69726546
H        0.36555577       1.19831000      -2.99272849
N       -1.38945239      -0.00000000      -1.41139150
H       -2.08538589      -0.54892700      -1.16431255
H       -1.71926637       0.85072800      -1.52312138
C       -0.79537429      -0.48377400      -2.69364956
C       -1.71913107      -0.16595500      -3.88020118
H       -2.59589067      -0.57854500      -3.73108811
H       -1.32634726      -0.52203000      -4.70519897
H       -1.82624410       0.80479700      -3.96151729
C       -0.64208536      -1.99954000      -2.55660318
H       -1.52435323      -2.40832300      -2.43792937
H       -0.07988862      -2.20253200      -1.77962322
H       -0.22157774      -2.35977900      -3.36593022
H        2.65026811      -1.62482700      -1.07546493
