41
Properties=species:S:1:pos:R:3 pbc="F F F"
Si       2.89887621       0.03430800      -3.49450312
O        1.38215704       0.00000000      -1.29725863
C        1.22803928       0.07626600      -2.56587968
C        3.64504867      -1.60051100      -3.11812851
C        2.59851182       0.22078100      -5.32991808
C        3.92674954       1.44291000      -2.86419291
C        4.39268645       1.20558700      -1.44014709
C        5.19900539       1.59786700      -3.72024229
C        3.21061924       2.73243300      -2.90304316
H        4.49313275      -1.67545200      -3.56242681
H        3.06113749      -2.29733900      -3.42354371
H        2.20899742       1.08124100      -5.50463454
H        3.43222278       0.14639300      -5.80009390
H        1.99957642      -0.46766600      -5.62770243
H        4.86167846       0.36907900      -1.39255077
H        4.97837432       1.91697900      -1.17249275
H        3.63189293       1.17918900      -0.85592629
H        5.68931935       0.77278300      -3.71613788
H        4.95368123       1.82062700      -4.62120161
H        5.74580089       2.29738600      -3.35451729
H        2.90649861       2.90384500      -3.79631416
H        2.45700727       2.69814800      -2.30867808
H        3.80396308       3.43583700      -2.62685123
O       -1.38215704      -0.00000000      -1.32250294
C       -1.21981847       0.08282600      -2.56587022
C        0.02365278       0.14723100      -3.18673222
C       -2.48051388       0.07983100      -3.40612983
C       -3.47314236       0.49915700      -3.10679500
C       -3.08600762       1.95964800      -2.99111326
C       -3.05926674      -1.53074800      -3.42409087
H        0.02985395       0.25089800      -4.14054659
H       -2.12669580       0.58981200      -4.13810003
H       -3.77699274       0.13990800      -2.26956172
H       -4.14387802       0.35423400      -3.77952856
H       -3.85527226       2.47335500      -2.73014838
H       -2.39752189       2.05839200      -2.32981406
H       -2.76411558       2.27211600      -3.83893385
H       -2.34587808      -2.12389700      -3.67031769
H       -3.38209621      -1.76335700      -2.55062424
H       -3.77396053      -1.60702500      -4.06062572
H        3.77335304      -1.68267600      -2.17059330
