26
Properties=species:S:1:pos:R:3 pbc="F F F"
O       -1.61407257       0.14858100      -3.59955475
O        6.11403179       0.97032500      -5.66317550
N        1.34400116      -0.00000000      -1.49423804
C        0.94426291      -1.29321000      -3.57975513
H        1.90192974      -1.30638600      -3.78451999
H        0.43215547      -1.29668100      -4.41557509
H        0.71227208      -2.08496000      -3.05128382
C       -0.89436078       0.03573900      -2.57789463
C        0.61437266      -0.04485100      -2.79148796
H        0.89421028       0.74755800      -3.33359487
C        4.26662469       2.04840200      -4.55921116
H        4.23585453       2.72994200      -5.21933799
C        4.33744466       0.07671700      -2.62894529
C        3.36134938       2.05630700      -3.50372464
H        2.71598086       2.75126100      -3.45068657
C        5.20932335       1.04386500      -4.63908572
C        3.38063382       1.07436200      -2.52773624
C        5.25162497       0.05246500      -3.67049338
C        2.36523943       1.08913300      -1.39845928
H        1.90011248       1.96310900      -1.39855830
H        6.08509942       1.63420700      -6.14983133
O       -1.34400116       0.00000000      -1.39954855
H        4.36744528      -0.60678000      -1.96943053
H        5.90215027      -0.63764800      -3.72111895
H        2.84396342       1.00319700      -0.53699224
H        1.80998302      -0.80166200      -1.42748450
