14
Properties=species:S:1:pos:R:3 pbc="F F F"
O       -1.33451864       0.00000000      -1.40890776
O       -1.81991491       0.08793400      -3.55956034
O        2.57193319       2.82839000      -4.48545714
H        2.10244051       3.36766500      -4.08312353
C       -1.00295361       0.06192300      -2.62499452
C        0.48157776       0.17447900      -3.01191234
H        0.68779935      -0.52276700      -3.66840519
C        0.76030193       1.52033900      -3.63422370
H        0.08827576       1.69951500      -4.31060443
H        0.68587696       2.20589700      -2.95170043
C        2.12281615       1.60260100      -4.26398682
O        1.33451864      -0.00000000      -1.87453735
H        1.85550011      -0.52661100      -2.12139379
O        2.77771471       0.65661900      -4.59928883
