49
Properties=species:S:1:pos:R:3 pbc="F F F"
N       -1.38469700      -0.00000000      -1.43661969
C        3.38252736      -0.52576700      -2.57288231
H        3.51555410      -1.50895700      -2.69831109
O        2.31601830       0.01336200      -3.44532845
O       -2.34886611       0.42012500      -3.41316961
C       -1.24851949       0.35549700      -2.65743645
C        0.02376453       0.74449800      -3.37171039
C       -2.81853468      -0.32406500      -1.23491778
C       -0.03693190       0.33181700      -4.84183557
H       -0.12476436      -0.64255200      -4.90374210
H        0.78496823       0.61465800      -5.29559327
H       -0.80951193       0.75646600      -5.26882415
C        0.17721614       2.28946300      -3.26509677
H        0.22261973       2.54773600      -2.32049765
H       -0.59360242       2.72339000      -3.68678189
H        0.99889528       2.56814200      -3.72083436
C       -3.06341577      -1.81050800      -1.19318953
C       -2.56033029      -2.74234900      -0.28681799
C        1.23896538       0.18321600      -2.67047176
C       -3.48762616       0.13759600      -2.53891997
H       -4.05682662       0.94722200      -2.39630073
C       -3.68935756      -4.48127200      -1.51685839
H       -3.89835256      -5.40183800      -1.62333637
C       -3.86695276      -2.20795700      -2.24628960
C       -4.30863819      -1.04723200      -3.09986310
H       -4.09844730      -1.20605600      -4.05373542
C       -4.19566737      -3.54601300      -2.41512299
H       -4.75649729      -3.81980800      -3.13155057
C       -2.88415025      -4.07297400      -0.46947202
H       -2.54553312      -4.72182500       0.13769688
N        1.38469700       0.00000000      -1.41250535
C        3.49802329       1.13459900      -0.86924040
C        3.87088124       3.25580900       0.15987791
H        3.63898968       3.91652600       0.80216682
C        3.13959964       2.08658000       0.08570029
H        2.40821341       1.93376400       0.67285798
C        4.54097844       1.37068100      -1.76602762
C        2.83329028      -0.18190700      -1.17912603
H        3.03202776      -0.88701400      -0.49836076
C        4.67503217       0.26140800      -2.75583040
H        5.46565709      -0.29975000      -2.55871731
C        4.95128627       3.47490500      -0.70260474
C        5.28881506       2.54861200      -1.66897916
H        6.01776756       2.70849900      -2.25795151
H        5.45823875       4.27370400      -0.62220567
H        4.75060063       0.61378100      -3.67827358
H       -3.19781555       0.14040000      -0.43491092
H       -2.00909241      -2.46976800       0.43659391
H       -5.28040208      -0.88440700      -3.00490066
