11
Properties=species:S:1:pos:R:3 pbc="F F F"
O        1.26860607      -0.00000000      -1.44177639
O       -1.26860607      -0.00000000      -1.50698244
C       -0.68529789       0.37786500      -2.74628088
C       -1.25006107      -0.39049300      -3.86000599
H       -2.18865035      -0.20391900      -3.93490033
H       -1.12323539      -1.32821700      -3.69893994
H       -1.96106784       0.30449700      -1.30521376
O        1.50393976       0.36371700      -3.61797982
C        0.83206799       0.21012400      -2.61224255
H       -0.80901920      -0.14299200      -4.67497223
H       -0.87786713       1.32683000      -2.89942925
