16
Properties=species:S:1:pos:R:3 pbc="F F F"
N       -1.33819764       0.00000000      -1.50370961
H       -1.92105360       0.69154700      -1.40902952
N        1.33819764       0.00000000      -1.52222472
H        2.15887966      -0.34507100      -1.29209694
C       -0.56092215       0.14371600      -2.76949761
C        0.64278672      -0.77094600      -2.61172294
H        0.38743366      -1.67198900      -2.32344547
H        1.17825034      -0.82216500      -3.43006022
C        1.40384901       1.38374700      -2.07602018
H        2.16649785       1.48441400      -2.68247612
H        1.47669540       2.04667900      -1.35789951
C        0.07127428       1.53432000      -2.83487169
H       -0.50368511       2.20005700      -2.40305361
H        0.22715886       1.80399500      -3.76440448
H       -1.80969994      -0.77903700      -1.50749889
H       -1.09853161      -0.06843300      -3.57291254
