36
Properties=species:S:1:pos:R:3 pbc="F F F"
O        2.55413803       1.52582300      -4.61186235
N        1.32279646      -0.00000000      -1.61613709
N       -1.32279646       0.00000000      -1.47323155
N        1.27156925      -0.24624800      -3.92973330
H        1.18607928      -0.63769300      -4.69153939
C       -0.86002595      -0.34065100      -2.68367604
C        2.00469790       0.84894100      -3.74370905
C        0.61986669      -0.73284600      -2.70961068
C        3.48095963       1.34249000      -1.77896473
H        3.86797381       2.07965500      -2.29636399
C        3.59289018       1.73367900      -0.30074066
H        3.05433438       2.50994400      -0.13099025
C       -3.03233622      -0.15088400      -3.63727787
H       -3.62583931      -0.20148100      -4.35140912
C       -2.62795339       0.27799100      -1.31632712
H       -2.94312660       0.53522300      -0.47961851
C       -1.68893675      -0.41024700      -3.79567352
H       -1.35298018      -0.63045700      -4.63391988
C        2.01170913       1.19127300      -2.25379976
C        1.20705576       2.47142900      -2.08348610
H        1.04862576       2.62308100      -1.14853090
H        1.70040379       3.21166700      -2.44759584
H        0.36810183       2.39084200      -2.54127286
C       -3.52232269       0.18102300      -2.38161617
H       -4.42568010       0.34850900      -2.24457601
C        4.32484777       0.10295900      -2.05607711
H        4.39731474      -0.42800100      -1.25977616
H        3.90885015      -0.41695000      -2.74876549
H        5.20002915       0.37324800      -2.34190375
C        0.76934490      -2.24577300      -2.54388266
H        0.53183335      -2.50431700      -1.64990532
H        0.20277594      -2.70315700      -3.17021908
H        1.68567183      -2.47918000      -2.71159678
H        2.00233768      -0.54948400      -1.36226327
H        4.50893125       1.92619300      -0.08831314
H        3.28343154       1.00383000       0.24227567
