35
Properties=species:S:1:pos:R:3 pbc="F F F"
O       -2.40937048      -0.02524400      -7.40375316
O       -0.26407126      -0.27728100      -7.40394555
N       -1.32498172      -0.11583900      -6.81144082
C       -1.32018047      -0.03902900      -5.37513313
C       -0.17798749      -0.40019900      -4.67428339
H        0.58947926      -0.64743600      -5.13879126
C       -0.17060452      -0.39716100      -3.28892333
C        1.03170679      -0.89589300      -2.54555383
H        0.84218836      -1.77853800      -2.19137840
H        1.77459856      -0.97785100      -3.16357870
O       -1.42706715      -0.00000000      -1.28568676
C       -1.34617771       0.00163300      -2.58022419
C       -2.47845183       0.40872600      -3.33864313
H       -3.24086885       0.70138800      -2.89162950
C       -2.48007559       0.38098300      -4.71325848
H       -3.23428118       0.63596200      -5.19336977
N        1.42706715       0.00000000      -1.42948996
C        1.85908107       1.35849500      -1.89477309
H        1.09163628       1.78191000      -2.33344094
C        2.98172100       1.26937300      -2.91198597
C        2.78975346       1.71624000      -4.21216387
H        1.96371307       2.05821900      -4.46473576
C        3.82313577       1.65719000      -5.13970364
H        3.68812441       1.98154400      -6.00112594
C        5.03512828       1.12714100      -4.79970000
H        5.71961486       1.07464300      -5.42830550
C        5.23601356       0.66597100      -3.50120061
C        4.22577043       0.74340000      -2.55950569
C        2.24134610       2.22268100      -0.69294069
H        1.50952273       2.25364800      -0.07469551
H        2.44726265       3.11220800      -0.99133215
H        3.01096123       1.84557100      -0.26007205
H        6.05746265       0.30156200      -3.26437069
H        4.37385437       0.44590400      -1.69157170
H        2.07957594      -0.39967500      -1.00433873
