25
Properties=species:S:1:pos:R:3 pbc="F F F"
O        1.43927407      -0.00000000      -1.20087930
N       -1.43927407       0.00000000      -1.42188075
H       -1.88760087      -0.78889200      -1.35500521
C       -0.90848276       0.09421400      -2.80624339
H       -0.46388548       0.96120000      -2.90747882
C        0.11380262      -0.98808100      -3.01810881
H       -0.25122447      -1.82455000      -2.68849038
H        0.26186852      -1.08991700      -3.97211625
C        1.47329319      -0.74472600      -2.33509748
C        2.43965590      -0.04200200      -3.30531277
C        2.06427080      -2.14204200      -1.98937177
C       -2.38460407       1.07160900      -1.09671531
H       -2.72929716       0.93666400      -0.21053292
F        1.95043678       1.11524700      -3.67902621
F        2.66590645      -0.74497000      -4.42018014
F        3.62267456       0.20629200      -2.77799721
F        1.31400329      -2.71112900      -1.06024174
F        2.08391618      -2.97154300      -3.01488097
F        3.28589540      -2.07606100      -1.49033079
C       -2.02075162       0.00096400      -3.85021737
H       -1.67524173       0.25058700      -4.71055755
H       -2.34976000      -0.90041500      -3.88787940
H       -2.73720435       0.59282100      -3.60901935
H       -3.10827921       1.06105900      -1.72811659
H       -1.93587690       1.91868300      -1.13937747
