43
Properties=species:S:1:pos:R:3 pbc="F F F"
N       -1.37897972       0.00000000      -1.46161293
S        1.37897972      -0.00000000      -1.90917357
O       -2.61423722       0.57879100      -1.21632698
H       -2.69214051       0.72599600      -0.41404656
C        0.53169961      -0.73072800      -4.45063563
H        1.43559090      -1.00486900      -4.70936274
C        0.19528125      -0.96106500      -2.97393634
C       -1.14752906      -0.27440600      -2.68487656
C       -1.25095855       0.20395100      -5.12173977
C       -0.60209180      -1.15175400      -5.47156017
C        0.17765271       0.73812500      -4.80209215
H        0.65233997       1.09022200      -5.57083044
H        0.21701592       1.34945900      -4.05080719
C       -0.04308512      -1.20709900      -6.89111719
H        0.52221049      -1.97735500      -6.98359344
H        0.46665907      -0.41283200      -7.06505854
C        0.19990851      -2.43559000      -2.55207348
H       -0.59454371      -2.86482300      -2.87949420
H        0.22344235      -2.49462000      -1.59380552
H        0.97303029      -2.87105600      -2.91861171
C        2.80858828      -1.05607500      -1.59133554
H        3.30899489      -0.68243500      -0.84902002
H        2.48996811      -1.93084800      -1.31714684
C        3.73949944      -1.23172500      -2.74871042
C        4.34767522      -0.13072400      -3.32180554
H        4.14530840       0.72420400      -3.01584678
C        5.25275589      -0.29933200      -4.34494460
H        5.65806263       0.44606000      -4.72690585
C        4.98321500      -2.63622400      -4.24684816
C        4.05512063      -2.48632000      -3.22177887
H        3.64666479      -3.23645700      -2.85373098
C       -2.04074000       0.12616800      -3.82142045
H       -2.43935991       0.98932400      -3.63262166
H       -2.75610794      -0.52301400      -3.91649311
C        5.56146015      -1.53465300      -4.80485777
H        6.16911293      -1.63240200      -5.50218324
C       -1.43747954      -2.41067700      -5.28587325
H       -2.13343559      -2.43347400      -5.94696943
H       -1.71021024       0.65256800      -5.86230418
H       -0.87732436      -3.18433600      -5.38295965
H       -0.76827163      -1.26566900      -7.51765445
H       -1.83003748      -2.40781000      -4.40897781
H        5.20843885      -3.48517900      -4.55077325
