36
Properties=species:S:1:pos:R:3 pbc="F F F"
C       -1.24230427       1.26393400      -2.20006084
H       -1.20521833       2.02418700      -1.56777690
H       -2.03104030       1.39464600      -2.78352012
C        0.01290020       1.27449700      -3.05915816
H        0.00937514       2.11021500      -3.60875418
C        1.29658221       1.24482400      -2.24175042
H        2.07197502       1.31049500      -2.85309356
H        1.31749303       2.03059000      -1.63953650
C        2.76435075      -0.01491700      -0.78236375
H        2.85781858       0.78408800      -0.20542262
H        3.46239245       0.03323900      -1.48323405
C        1.28923343      -1.21872400      -2.31930771
H        2.04504785      -1.18335200      -2.97280667
C       -0.00857820      -1.16716400      -3.13104824
H       -0.02269275      -1.96504100      -3.73467823
C       -1.28518761      -1.18884400      -2.30009007
H       -2.06549991      -1.23162900      -2.90756260
H       -1.29134857      -2.00460800      -1.73880777
C       -0.01114274       0.07860400      -4.00644951
H       -0.82418284       0.10204700      -4.57201284
H        0.78461862       0.08847300      -4.59539819
C       -2.76207615       0.00759100      -0.81206527
H       -3.44323074       0.03675200      -1.51607309
H       -2.85337778       0.79544900      -0.23640418
H       -2.88140718      -0.80447100      -0.27649371
N       -1.41641116      -0.00000000      -1.42751682
N        1.41641116       0.00000000      -1.42874544
C        2.98186518      -1.26322700       0.05305022
H        2.32877685      -1.28155700       0.79758422
H        3.89200325      -1.24671000       0.44400565
C        2.81568821      -2.51680600      -0.80347724
H        3.54012700      -2.55669200      -1.47810455
H        2.88154525      -3.32180700      -0.23157460
C        1.46331161      -2.49775600      -1.50627747
H        0.74077279      -2.56008500      -0.83178893
H        1.39234205      -3.28163200      -2.10546246
