21
Properties=species:S:1:pos:R:3 pbc="F F F"
O       -1.34714837       0.00000000      -1.90826115
O       -1.18012982       0.57465200      -4.05417577
N        1.34714837      -0.00000000      -1.54051089
C       -0.68060014       0.33962200      -2.84450755
C        0.81430380       0.57864100      -2.78355667
C       -2.62960666       0.53154000      -4.15662459
H       -2.89673330       0.71943400      -5.08069369
H       -3.01932309       1.20417500      -3.56072609
H       -2.94909970      -0.35852600      -3.89909805
C        1.91525968      -1.26344000      -1.98852899
H        1.20940713      -1.95212600      -2.07573662
O        2.49983679      -0.98755000      -3.24843588
C        1.62536326      -0.08644100      -3.93169984
C        2.48142103       0.83625000      -4.75227714
H        2.94348433       0.32217600      -5.44727183
H        3.14243183       1.27066900      -4.17247647
H        1.91767968       1.51900400      -5.17031003
H        1.00944758      -0.59866500      -4.52972508
H        2.05918529       0.53778500      -1.27662897
H        0.98796621       1.56388200      -2.78702277
H        2.59894751      -1.58500300      -1.35032849
