59
Properties=species:S:1:pos:R:3 pbc="F F F"
N       -1.46208647       0.00000000      -1.32034251
N        1.46208647      -0.00000000      -1.34015458
O       -2.50901024      -0.38560000      -3.24171176
O        2.45249993      -0.03341000      -3.33139780
B       -0.02534916      -0.09468000      -3.54572780
C       -2.91340428       0.15599000      -1.02218133
C       -3.24012522       1.65755000      -0.93332039
C       -4.71865156       1.95437000      -0.84097347
C       -5.39586074       1.91607000       0.37139015
C       -6.76081567       2.16516000       0.42257100
C       -7.46230904       2.46359000      -0.73113298
C       -6.80671286       2.50181000      -1.94237267
C       -5.44328957       2.24947000      -1.99170252
C       -3.53060835      -0.53863000      -2.22202935
C       -1.32415778      -0.18472000      -2.60450652
C        1.29627566      -0.01842000      -2.63329632
C        3.55676925      -0.15263000      -2.41226772
C        2.91234662      -0.05290000      -1.03384838
C        3.25578395      -1.19993000      -0.08685303
H       -3.15623386      -0.31235000      -0.17407275
H       -2.87922717       2.10579000      -1.75027712
H       -2.79142029       2.03286000      -0.12271980
H       -4.89449746       1.71020000       1.21158801
H       -7.23843225       2.12841000       1.29940279
H       -7.31042444       2.71070000      -2.77936913
H       -4.97067464       2.28110000      -2.87122330
H       -4.38280906      -0.09267000      -2.49699458
H       -3.70649560      -1.50326000      -2.02969605
H        4.21927059       0.58300000      -2.55134700
H        4.01213665      -1.03661000      -2.52212537
H        3.18684194       0.81050000      -0.61249544
H        2.99093188      -2.06529000      -0.51193917
H        2.75342122      -1.08194000       0.77098303
C        4.74491896      -1.21901000       0.20530889
C        5.58090302      -2.15611000      -0.36986549
C        6.95226673      -2.10089000      -0.14774964
C        7.50370781      -1.11754000       0.63389241
C        6.67966237      -0.18634000       1.22026727
C        5.31200973      -0.24177000       1.00577544
H        5.19888216      -2.87654000      -0.94963229
H        7.54792048      -2.78640000      -0.56828428
H        8.49232135      -1.07693000       0.77704171
H        7.06493987       0.52707000       1.80480248
C       -0.16189718       1.26653000      -4.44702824
C       -0.17732313       2.59484000      -3.69880610
H       -1.01481206       1.20212000      -4.96582982
H        0.61239110       1.28732000      -5.07850803
H       -0.26151114       3.34547000      -4.35359525
H        0.67302174       2.69693000      -3.18204452
C        0.09196513      -1.42431000      -4.48924663
H        0.78858979      -1.24276000      -5.18190136
H       -0.79352645      -1.56127000      -4.93454843
C        0.46102494      -2.71089000      -3.78871809
H        0.50469406      -3.45154000      -4.45938657
H        1.35240706      -2.60627000      -3.34787370
H       -0.23018049      -2.92549000      -3.09801550
H       -0.95339174       2.61274000      -3.06892940
H       -8.44417385       2.65054000      -0.68524726
H        4.72186669       0.43991000       1.43938862
