51
Properties=species:S:1:pos:R:3 pbc="F F F"
O        2.47936130      -0.07340000      -3.26054903
C        1.28388850      -0.02835000      -2.58679178
C       -0.15285026      -1.08990000      -4.66870305
C        0.02309919       1.17840000      -4.57904518
C        0.41719265       2.49034000      -4.02629978
B       -0.02978465      -0.00656000      -3.51893905
H        0.57377201      -1.03624000      -5.29418662
H       -0.98618021      -0.99797000      -5.13598881
H        0.66956639       0.93025000      -5.24615235
H       -0.84308346       1.24747000      -4.98576564
H        0.43025225       3.13386000      -4.74045421
H        1.28830153       2.44066000      -3.62513982
H       -0.22495980       2.75756000      -3.36557127
C       -0.13572706      -2.31938000      -3.87062980
H       -0.21344495      -3.07802000      -4.45437870
H        0.69824009      -2.36385000      -3.39771208
H       -0.86170394      -2.32558000      -3.23950854
C        3.51619484       0.12598000      -2.36008647
C        2.88678342      -0.14879000      -0.97379724
H        4.23700651      -0.48488000      -2.52933410
H        3.84069131       1.02733000      -2.41151264
H        3.12880255       0.56635000      -0.37959562
C        3.24507805      -1.43046000      -0.33277153
C        3.02394932      -2.64024000      -1.20406478
H        2.69964067      -1.53105000       0.45195251
H        3.27684780      -3.43169000      -0.72441917
H        2.09805549      -2.69566000      -1.44971952
O       -2.49091215       0.10996000      -3.24533531
N       -1.43811980       0.00000000      -1.31054480
C       -2.85620417       0.24800000      -0.93798975
C       -3.04621297       1.63792000      -0.35632960
C       -4.36000741       1.80830000       0.30746575
C       -2.80710537       2.76567000      -1.38625748
C       -3.55618517      -0.04632000      -2.26226543
C       -1.33743094       0.01579000      -2.58656183
H       -3.12751944      -0.40328000      -0.28844271
H       -2.37905410       1.74237000       0.32647789
H       -4.42799789       2.69999000       0.65689184
H       -5.06062773       1.66085000      -0.33100518
H       -4.44376465       1.17573000       1.02672253
H       -1.90886971       2.71112000      -1.71898152
H       -3.42675689       2.67075000      -2.11303533
H       -3.90707857      -0.93922000      -2.27619747
H       -4.26622039       0.58034000      -2.42160222
N        1.43811980      -0.00000000      -1.32343924
C        4.70536703      -1.37459000       0.11636554
H        4.93890136      -2.20630000       0.53586449
H        5.26477170      -1.23114000      -0.64781458
H        4.82451616      -0.65619000       0.74280738
H       -2.94081964       3.61608000      -0.96074298
H        3.56287227      -2.56295000      -1.99659098
