27
Properties=species:S:1:pos:R:3 pbc="F F F"
C        2.03028169       3.64846600       0.58411342
C        1.37566956       4.27805200       1.67651470
C        0.02452185       4.41865100       1.71014534
C       -0.71488378       3.93296300       0.63757616
C       -2.30951590       3.32881500      -0.76666007
H       -3.16009617       3.20542600      -1.12206609
C       -1.14530014       2.89914500      -1.34979155
C       -0.08674550       3.27872800      -0.46367741
C        1.31628929       3.16205800      -0.48229779
H        1.74723199       2.76416200      -1.20275492
C       -1.09972674       2.19894600      -2.66166993
H       -0.48747912       2.68069600      -3.24159326
H       -1.98104315       2.24997300      -3.06318979
C       -0.67165267       0.73082300      -2.62662047
H       -0.97423650       0.31131800      -3.45956278
C        0.83726297       0.55693300      -2.54614689
N       -2.04133446       3.95971500       0.40383997
H       -2.62899785       4.32050600       0.91750706
N       -1.29084698      -0.00000000      -1.50887181
H       -2.04806409       0.39726400      -1.26526216
O        3.38723103       3.57434900       0.66928335
H        3.77170078       3.16539800       0.08761475
O        1.29084698       0.00000000      -1.48688363
O        1.55403258       0.94290000      -3.46782313
H       -1.47856730      -0.83544600      -1.75314241
H        1.88051878       4.60123700       2.38528672
H       -0.39435931       4.82930300       2.43098180
