52
Properties=species:S:1:pos:R:3 pbc="F F F"
O        2.36124939       0.09495000      -3.34764543
O        3.40848441       1.81540000      -0.20513889
N       -1.39755918      -0.00000000      -1.32607660
N        1.39755918      -0.00000000      -1.31268331
N        4.45053294      -0.00246000       0.66514551
C        0.01851257       0.36123000      -3.27189741
C       -1.19151086       0.22511000      -2.61066664
C        1.21031709       0.17599000      -2.59184986
C        3.43152039      -0.19808000      -2.47693099
C        2.80447471      -0.34328000      -1.06119265
C        3.55050275       0.59925000      -0.13589514
C        5.50580015       0.70624000       1.44049198
C        4.89998946       1.65681000       2.44399586
C        6.26249323      -0.36995000       2.16795317
C        6.40658921       1.41759000       0.47782266
H        0.04112741       0.56775000      -4.22239804
H        3.89314948      -0.99120000      -2.73101127
H        4.06558336       0.52814000      -2.46885020
H        2.84303391      -1.25479000      -0.76626256
H        4.38112020      -0.80586000       0.63116461
H        5.57132918       2.10164000       2.93030658
H        4.35354914       2.29717000       1.98880534
H        4.33695100       1.16961000       3.05356569
H        5.64233239      -0.87104000       2.72989805
H        6.61466219      -1.01073000       1.52902420
H        6.94545539      -0.02883000       2.68437008
H        7.10235689       1.85933000       0.89857302
H        6.80235656       0.75234000      -0.14469450
H        5.90328613       2.01434000      -0.07267632
O       -2.33363730       0.28016000      -3.35346415
O       -2.89592487      -2.36510000      -0.42197600
N       -4.32016562      -0.89599000       0.58780831
C       -3.40669084      -0.11204000      -2.49848289
C       -2.84244845      -0.03585000      -1.07691954
C       -3.33058424      -1.22374000      -0.24866223
C       -5.10814482      -1.79256000       1.45573530
C       -6.05439554      -0.88548000       2.23790816
C       -5.91746686      -2.74102000       0.61297816
C       -4.21036624      -2.54718000       2.40889528
H       -3.70419361      -1.00055000      -2.68341245
H       -3.13414729       0.79182000      -0.68402726
H       -4.53075863      -0.05206000       0.56751678
H       -5.54313276      -0.26112000       2.79706727
H       -6.62784993      -0.38096000       1.69504933
H       -6.59353103      -1.40172000       2.86210554
H       -6.48381803      -2.26451000      -0.00127870
H       -5.30456545      -3.27047000       0.05414433
H       -6.42737599      -3.33135000       1.12417763
H       -4.74171240      -3.12342000       2.97062879
H       -3.58894339      -3.07057000       1.93075316
H       -3.74339012      -1.93536000       2.97708215
H       -4.15912954       0.47985000      -2.59796599
