23
Properties=species:S:1:pos:R:3 pbc="F F F"
C        2.67723326      -0.03460700      -1.43692042
H        3.08008730      -0.09065600      -0.60003543
C        3.46003446       0.01499200      -2.56944971
H        4.38667820      -0.00254400      -2.49720782
C        2.87156085       0.09040900      -3.79685681
H        3.39804956       0.13991800      -4.56194236
C        1.50028615       0.09282700      -3.90650018
C        0.74176038       0.04525700      -2.74679564
N        1.32124190       0.00000000      -1.53257739
C        0.81786581       0.15493100      -5.21009084
O       -0.02628905      -1.06520500      -5.54060393
C       -0.69423318       0.27049100      -5.23446022
H       -1.10034110       0.75778400      -5.98075787
C       -1.40355495       0.26491200      -3.95660780
C       -2.77777902       0.34974500      -3.89706130
H       -3.27623650       0.47139800      -4.67354351
C       -3.40349806       0.25470800      -2.69146337
H       -4.32865437       0.32299900      -2.64107872
C       -2.65183911       0.05404300      -1.52274237
H       -3.08492425      -0.04109500      -0.70512062
C       -0.72788471       0.07518400      -2.77015571
N       -1.32124190      -0.00000000      -1.58026003
H        1.30941638       0.57129900      -5.94944176
