12
Properties=species:S:1:pos:R:3 pbc="F F F"
O        0.53389954      -2.32724500      -2.65525287
O        1.33955359      -0.00000000      -1.38488767
O       -1.33955359       0.00000000      -1.44540654
C        0.50417974      -1.27193400      -3.32541256
C        0.71340270       0.08464300      -2.63968204
H        1.26154591       0.66951200      -3.23692068
C       -0.67569539       0.72407200      -2.45096043
O       -0.49048613       2.49612000      -0.84371423
O       -0.16734491       2.99828100      -2.98784867
C       -0.44150804       2.18529900      -2.04556497
O        0.29451747      -1.23455900      -4.58097808
H       -1.19390163       0.68214200      -3.30519947
