48
Properties=species:S:1:pos:R:3 pbc="F F F"
N        1.39830347       0.00000000      -1.39574092
H        2.19984527       0.02462400      -0.98716136
C        4.10202766      -3.58231100       1.27186128
O        5.17454403      -3.93216200       0.92102318
O        3.90057004      -3.01578900       2.44640927
C        2.86886195      -3.68642500       0.44190918
H        2.91043435      -4.49044500      -0.10006147
H        2.09324347      -3.75123200       1.01942316
C        2.73274206      -2.49115500      -0.44707740
H        2.71586883      -1.69488700       0.10636435
H        3.51832759      -2.43632200      -1.01407641
C        1.49163541      -2.49228600      -1.33542209
H        0.70585529      -2.56526100      -0.77130400
H        1.51863058      -3.27734900      -1.90479855
C        1.34821983      -1.25418200      -2.21507491
H        2.11597791      -1.23710300      -2.82325458
C        0.08102467      -1.24252700      -3.07487444
H        0.08906663      -2.04317600      -3.63981076
C        0.11320166      -0.02082900      -3.98486580
H       -0.65331004      -0.02437400      -4.57880703
H        0.92022760      -0.02377200      -4.52353166
C        0.08111837       1.20803200      -3.09429246
H        0.10466897       1.99838800      -3.67420486
C        1.33806864       1.22165900      -2.24256843
H        1.33895690       2.00954000      -1.67740291
H        2.11997826       1.25896600      -2.81566118
C       -1.21024240       1.26802700      -2.27157857
H       -1.11202165       2.00335800      -1.63062880
C       -2.40462520       1.59908200      -3.16003101
H       -2.45523198       0.94551300      -3.87470722
N       -1.39830347      -0.00000000      -1.47220010
C       -1.23114448      -1.22928400      -2.28678925
H       -1.25678280      -2.00266800      -1.70077855
H       -1.97355643      -1.30212300      -2.90656710
C        5.05098090      -2.83187400       3.28974336
H        4.79400992      -2.35167300       4.08029372
H        5.40629596      -3.68880400       3.53747188
C       -3.72178116       1.61420600      -2.41183953
H       -4.45255275       1.75018500      -3.03574584
H       -3.72804585       2.34334500      -1.77282726
C       -3.90598307       0.29911200      -1.68903853
H       -3.98904745      -0.41914500      -2.33593407
H       -4.72074610       0.32821100      -1.16412196
C       -2.72941413       0.02802100      -0.78294850
H       -2.86795212      -0.82571800      -0.34397623
H       -2.26264328       2.46904300      -3.56582286
H        5.71989413      -2.33323800       2.81504538
H       -2.70642806       0.71038400      -0.09438256
