37
Properties=species:S:1:pos:R:3 pbc="F F F"
O        1.55144606      -0.00000000      -1.68627011
N       -1.55144606      -0.00000000      -1.30278560
N       -0.32589659      -0.79309600      -3.19654124
C       -2.76362297       0.26955500      -0.75815794
H       -2.78990148       0.65397500       0.08915691
C       -3.94033193       0.00992200      -1.38169689
H       -4.75272924       0.20040100      -0.96978457
C       -3.89529193      -0.54825900      -2.65028709
H       -4.68913397      -0.74757500      -3.09350483
C       -2.70209763      -0.80803900      -3.25635215
C       -2.61247918      -1.36402100      -4.65393436
H       -3.49748343      -1.50978300      -4.99762526
H       -2.14837695      -0.74041200      -5.21749792
H       -2.13536218      -2.19729000      -4.63758305
C       -1.50999880      -0.50195200      -2.57183933
O        0.74521904       1.47854000      -3.37768893
S        0.93546627       0.09510600      -3.01055847
C        2.06251155      -0.66542100      -4.17290260
C        2.05670848      -0.20798700      -5.50725834
C        2.99310747      -0.77794900      -6.38265392
H        3.02033746      -0.48782400      -7.26527174
C        1.06185438       0.77375700      -6.06733479
H        1.31690030       1.66552900      -5.81644781
H        1.04775955       0.70265300      -7.02496278
H        0.18956044       0.57995600      -5.71888765
C        3.87663326      -1.75631400      -5.97471633
C        4.88090311      -2.30317200      -6.99870282
H        5.20144360      -3.16028600      -6.70653165
H        4.44915975      -2.39794500      -7.85197864
H        5.61916822      -1.69563400      -7.08036477
C        3.81629778      -2.19026200      -4.68873966
C        2.92701084      -1.69079700      -3.75411202
C        2.93308789      -2.31719500      -2.38994374
H        2.05624798      -2.65464100      -2.18831445
H        3.56482344      -3.04157900      -2.37382092
H        3.18199322      -1.65965000      -1.73648882
H        4.40561172      -2.85876300      -4.42168165
