28
Properties=species:S:1:pos:R:3 pbc="F F F"
S       -1.17655971       0.10551800      -3.14058931
O       -1.43480158       0.00000000      -1.73306861
N        0.30631660      -0.22305700      -3.52037718
C       -1.39444848       1.82072300      -3.55788078
C       -1.36244763       2.26400200      -4.88114524
H       -1.18591705       1.65325600      -5.56072505
C       -1.57552938       3.54397900      -5.19303483
H       -1.62185962       3.80048100      -6.08544783
C       -1.72540382       4.47050900      -4.21855038
H       -1.79665400       5.36977200      -4.44893763
C       -1.77768201       4.09747900      -2.85921522
H       -1.96043159       4.71405300      -2.18859097
C       -1.54261426       2.77617100      -2.58170757
H       -1.48056722       2.51401800      -1.69090819
S        2.92415492      -0.20947900      -3.50754519
N        1.43480158      -0.00000000      -1.37419749
Cl       7.15456365       0.45718300      -0.06090313
C        5.46980528       0.27755000      -0.41086719
C        5.08871850       0.07253100      -1.71385974
H        5.71441710      -0.00293800      -2.39543386
C        3.72258930      -0.01581100      -1.96817775
C        2.79256998       0.06218700      -0.96106360
C        3.19596434       0.21986200       0.36427538
H        2.57436253       0.26287100       1.05438339
C        4.54693737       0.31070600       0.62329263
H        4.84152761       0.39459300       1.50087829
C        1.38042959      -0.13590800      -2.70564166
O       -2.04397114      -0.62740800      -4.00852890
