31
Properties=species:S:1:pos:R:3 pbc="F F F"
S       -1.15768332      -0.35901900      -3.10069639
O       -2.03740847       0.21360000      -4.08497715
O       -1.45768083      -0.00000000      -1.71484940
N        0.33014221      -0.05706400      -3.54632430
C       -1.33952511      -2.10543100      -3.23812269
C       -1.87696587      -2.85917400      -2.20316699
H       -2.07622926      -2.46441400      -1.38400823
C       -2.10997916      -4.20844400      -2.40871877
H       -2.46163534      -4.71939500      -1.71576171
C       -1.28397422      -4.04209100      -4.63343157
C       -1.03539457      -2.69311500      -4.44708743
H       -0.66549707      -2.18712500      -5.13227100
S        2.92358401      -0.11863000      -3.51239160
N        1.45768083      -0.00000000      -1.36943821
Cl       7.19585623       0.00860000      -0.03219560
C        5.49660070       0.03189900      -0.39239590
C        4.56737102       0.10372100       0.64572932
C        3.23175188       0.06383700       0.37395727
C        2.78508238       0.01901300      -0.95390955
C        3.72439682      -0.03596200      -1.97234713
C        5.09771055      -0.02095000      -1.71025786
H        5.72020876      -0.04409300      -2.40035270
C        1.36592346      -0.04598400      -2.70124162
C       -1.83173699      -4.82255500      -3.63447802
C       -2.18646402      -6.28578500      -3.88658247
H       -1.91694321      -6.53219100      -4.77404452
H       -3.13528855      -6.40613700      -3.79485205
H       -1.73039535      -6.84025100      -3.24859724
H        2.61504832       0.06528500       1.07154325
H       -1.07867917      -4.43176100      -5.45230073
H        4.85900966       0.17919600       1.52601750
