50
Properties=species:S:1:pos:R:3 pbc="F F F"
C        2.60869671       3.11573000      -3.19923040
C        2.67756746       4.05902300      -4.12307994
H        2.40725320       4.92673200      -3.92381458
H        2.99780050       3.85547100      -4.97235562
C        2.10807769       3.36963100      -1.82735797
H        2.24053915       2.56324100      -1.28564565
C        2.58066697       4.61371200      -1.01414591
H        3.26653389       4.41124400      -0.35978975
H        2.84465120       5.36229500      -1.57061324
C        1.17327107       4.76508800      -0.40449763
C        0.62002998       6.17843900      -0.33978229
H        0.86678045       6.65534300      -1.13576048
C        0.67327988       3.89108300      -1.61091058
H        0.46335172       4.49872700      -2.35163383
C       -0.49531428       2.96058600      -1.44327846
H       -1.27028064       3.47215400      -1.16328687
C        0.92428299       0.44509000      -2.65279191
C        1.86063049       0.71628100      -3.77752361
H        1.33588529       1.04758700      -4.52344242
H        2.24615997      -0.13006400      -4.05219476
C        3.01871723       1.70482700      -3.54306502
H        3.57234188       1.36282100      -2.82301669
H        3.56544968       1.73133200      -4.34401052
N        1.26281887      -0.00000000      -1.51330610
O        2.61947284      -0.26625300      -1.38346764
C        1.03455157       4.04417600       0.93261447
H        1.36654838       4.60630500       1.63594396
H        1.53996868       3.22729300       0.91094816
H        0.11020131       3.84324100       1.09402403
C       -0.58093097       0.69498800      -2.80038440
C       -0.82990987       2.21184300      -2.72773229
H       -1.77080756       2.36144300      -2.91658732
N       -1.26281887       0.00000000      -1.62106573
C       -1.37721341      -1.45565300      -1.86308863
H       -1.74374103      -1.88054600      -1.08507355
H       -0.50651140      -1.81776100      -2.04535206
C       -2.66512169       0.48022800      -1.38594837
H       -3.16322220       0.42569200      -2.20448434
H       -2.64519414       1.39142200      -1.08497076
H       -3.08419211      -0.06773800      -0.71821305
C       -1.09908910       0.17133700      -4.15057643
H       -0.94426812      -0.77551200      -4.20825231
H       -0.29376694       2.32004000      -0.74488596
H       -0.33758378       6.14496600      -0.27140820
H       -1.95266871      -1.61002300      -2.61524081
H       -0.63582606       0.61505400      -4.86559374
H       -2.04040432       0.34526700      -4.22225877
H       -0.32759486       2.62448600      -3.44690544
H        2.57276949      -0.42513000      -0.64402455
H        0.98024436       6.62816300       0.42746451
