33
Properties=species:S:1:pos:R:3 pbc="F F F"
O       -1.48411800       1.63055800      -6.17997190
O        0.44167081       0.69066100      -5.74705203
N        1.28794351       0.00000000      -1.46130220
N        1.73628448       0.33565000      -3.61957736
H        1.58439783       0.44603000      -4.45764994
N       -1.28794351       0.00000000      -1.75208243
C        0.81900649       0.21417700      -2.71126043
C       -0.63390449       0.28604000      -2.92308243
C       -1.32458066       0.58372800      -4.10518296
C       -2.71047344       0.52439600      -4.05433724
H       -3.20733400       0.72482000      -4.81391363
C       -3.35589907       0.17790700      -2.89736823
H       -4.28178781       0.09315500      -2.88034181
C       -2.61007379      -0.04861700      -1.75073788
H       -3.05240029      -0.24108300      -0.95647827
C       -0.72618757       0.98510100      -5.45658681
O        3.42575360      -0.30404400      -0.63690602
C        3.08468991       0.25265700      -3.01430732
C        3.80084368       1.64837600      -3.08311124
H        3.26858166       2.30479200      -2.62938486
H        4.66135920       1.58753400      -2.66158245
H        3.91292152       1.90577300      -4.00172707
C        3.89380534      -0.74604200      -3.69291677
H        3.95191175      -0.49914800      -4.63976876
C        5.32770535      -0.85662700      -3.14397672
H        5.75863522      -0.00096200      -3.20328490
H        5.29705755      -1.13565300      -2.22414528
H        5.81901841      -1.50077200      -3.65789910
C        3.17030896      -2.13300700      -3.59477019
H        2.27712928      -2.05227000      -3.93789394
H        3.65318207      -2.78359300      -4.11162626
H        3.13783737      -2.41399400      -2.67824083
C        2.66227015      -0.07820000      -1.55631180
