29
Properties=species:S:1:pos:R:3 pbc="F F F"
O        1.03962549       0.00000000      -1.64810259
C        0.17994548       0.05553500      -2.60309206
C        0.69065541       0.22256700      -4.02681512
C        2.12527690       0.73109700      -4.14505415
H        2.13531176       1.68691400      -4.31426904
C        2.74909885      -0.03547800      -5.32619499
H        3.21085390       0.57563300      -5.92187922
C        1.58068734      -0.71675000      -6.05372878
C        0.94628770       0.27054000      -7.04726218
H        1.58239993       0.48904700      -7.73181697
H        0.68859973       1.06940200      -6.58406273
H        0.17129447      -0.13045200      -7.44656163
C        0.59187563      -1.07194100      -4.87943002
C        1.08640088      -2.28154300      -4.07872325
H        0.51574018      -2.41730400      -3.31871398
H        1.98476996      -2.12261000      -3.78033299
H        1.06852955      -3.06300000      -4.63605916
C       -0.84286553      -1.35487600      -5.34251907
H       -0.84018844      -2.08515100      -5.96510456
H       -1.20183968      -0.57345000      -5.76860209
H       -1.38535557      -1.58190800      -4.58300093
C        2.04974647      -1.97417900      -6.77972825
H        0.10816745       0.79812200      -4.48884682
H        1.60463818      -2.91185900      -8.16493115
O       -1.03962549      -0.00000000      -2.35999048
O        3.02313157      -2.61783900      -6.46803674
O        1.26905216      -2.31795300      -7.79150526
H        2.61654022       0.55545000      -3.32680737
H        3.38267595      -0.69787300      -5.00678576
