38
Properties=species:S:1:pos:R:3 pbc="F F F"
C        0.80212653       0.01152700      -2.71471689
C        2.80947142       0.03385300      -1.70213248
H        3.14379769       0.87985600      -1.33916832
C        3.04032077       0.03395800      -3.25282932
H        3.46333387      -0.80749300      -3.52411401
C        3.43401996      -1.09018200      -0.93506624
C        3.09781487      -2.41586800      -1.21219734
H        2.53135602      -2.61526400      -1.92146409
C        3.61678036      -3.42649000      -0.42532529
H        3.39326312      -4.31592700      -0.58610942
C        4.47224945      -3.09242100       0.60167113
H        4.83295144      -3.74753400       1.15400638
C        4.78299619      -1.75755300       0.79372995
H        5.37697772      -1.53899500       1.47497476
C       -0.67626162       0.00266800      -2.86053069
N        1.33437929      -0.00000000      -1.53943102
N        4.27773662      -0.76327300       0.05406516
N       -1.33437929       0.00000000      -1.68651815
C       -1.32300874       0.02542600      -4.08107671
H       -0.83695068       0.02799800      -4.87463489
C       -2.71979841       0.04430200      -4.10121563
H       -3.18282600       0.07068300      -4.90740763
C       -3.40033507       0.02247000      -2.90204118
H       -4.33081199       0.02166500      -2.88559770
C       -2.67745851       0.00328100      -1.72583187
H       -3.14372668      -0.00849000      -0.92098195
C        3.88185978       1.19735400      -3.71643465
C        3.36388920       2.48717100      -3.76706759
H        2.47465586       2.64753200      -3.55027097
C        5.93342975       1.94782900      -4.37435951
H        6.82264939       1.77159300      -4.58451485
N        5.15130043       0.92445500      -4.02634381
C        4.18862651       3.52468900      -4.14115334
H        3.86375506       4.39500400      -4.19173811
C        5.49607150       3.25133400      -4.43981497
H        6.07910571       3.93510600      -4.68141962
N        1.66063158       0.08796600      -3.76721957
H        1.43485345       0.15629000      -4.59418698
