25
Properties=species:S:1:pos:R:3 pbc="F F F"
O        3.25069341      -2.14356600      -2.37349145
O       -1.31974379      -0.00000000      -1.39824744
O       -1.59511310      -0.05175600      -3.58773171
N        2.45392445      -0.97413800      -4.15908825
N        4.72282326      -1.34165100      -3.90371706
N        1.31974379       0.00000000      -1.47712559
C        3.45531188      -1.52452500      -3.40248853
C        5.07041785      -0.71946800      -5.08971446
C        3.96025015      -0.22621500      -5.86641692
C        4.22121784       0.41857500      -7.19189470
C        2.72253644      -0.35984600      -5.36424619
C        1.06008328      -1.08955900      -3.69751253
C        0.63410520       0.04151500      -2.79089908
C       -0.88477707      -0.00919600      -2.59676657
H        5.30673314      -1.69581000      -3.34921912
H        1.98484759      -0.00819600      -5.86651655
H        0.85751116       0.86631500      -3.21650126
H        3.90374139       1.31440600      -7.18545348
H        3.75254784      -0.06351900      -7.88241084
H        5.14540575       0.40706400      -7.38761623
H        0.95806664      -1.91776800      -3.23085239
H        0.48720708      -1.10487100      -4.46500942
H        1.84876080      -0.78808400      -1.42826088
H        1.88536245       0.76234800      -1.39417826
O        6.24114173      -0.61284500      -5.40766155
