14
Properties=species:S:1:pos:R:3 pbc="F F F"
C       -0.18961043       0.02239300      -2.60042372
C       -0.56596866       0.13274800      -3.99072213
H       -1.46164123       0.05623200      -4.22894190
C        0.34892126       0.34374100      -4.93866809
C        0.08708105       0.57607100      -6.38220521
H       -0.83309637       0.82244000      -6.50475255
H        0.27183009      -0.22690500      -6.87411933
H        0.65282330       1.28443000      -6.70011186
N        1.08425204      -0.00000000      -2.20777779
O       -1.08425204       0.00000000      -1.69331328
O        1.68662066       0.40755200      -4.64065605
O        3.42186235       0.31013800      -2.96390503
O        2.23909784      -1.71416600      -3.59228138
S        2.19898292      -0.32726300      -3.28993421
