52
Properties=species:S:1:pos:R:3 pbc="F F F"
O       -1.32369863       0.00000000      -2.29629529
N        1.32369863      -0.00000000      -1.53423580
C        0.90592932       0.27368000      -2.93103990
C        0.72984054       1.79355000      -3.08696947
C        2.02264332       2.53356000      -2.89223765
C        2.25554881       3.25325000      -1.71795864
C        3.45872262       3.90328000      -1.51825376
C        4.45930597       3.85072000      -2.48458954
C        4.23779489       3.11808000      -3.64105687
C        3.04250545       2.47058000      -3.84673140
C       -0.38825163      -0.48443000      -3.25422989
H        1.97605485       0.48804000      -1.31596468
H        1.64616287      -0.83994000      -1.46355536
H        1.65264707      -0.08345000      -3.66260815
H        0.12498644       2.06347000      -2.38651024
H        0.39495994       1.87542000      -3.84442303
H        1.41957197       3.39860000      -0.99005823
H        3.50427312       4.44509000      -0.77746603
H        5.58177642       4.14266000      -2.39033513
H        5.27766042       2.94102000      -4.28136449
H        2.69512991       2.04849000      -4.84026504
C       -0.85632125      -0.14681000      -4.69449915
C       -0.05465539      -0.42081000      -5.81230547
C       -0.50469490      -0.11366000      -7.08572280
C       -1.72798790       0.46645000      -7.27261530
C       -2.52229056       0.75244000      -6.21350657
C       -2.08376218       0.44514000      -4.92503953
H       -0.13251867      -0.30210000      -7.72560394
H       -1.94339883       0.49532000      -8.10567076
H       -3.47767678       1.16855000      -6.30091899
H       -2.54048553       0.59451000      -4.11856946
O        1.16974569      -0.97499000      -5.58331412
C        1.89307973      -1.53402000      -6.62160122
H        2.71559917      -1.87165000      -6.28858679
H        1.39369320      -2.24175000      -7.01096281
H        2.06693835      -0.86846000      -7.27920798
C       -0.27163344      -2.01334000      -3.13203314
O       -2.63332467      -2.15525000      -2.94529540
C       -1.42835678      -2.80930000      -2.97867230
C       -1.34177080      -4.19105000      -2.83311662
C       -3.78311405      -2.73430000      -3.48936074
H       -2.31996171      -4.61614000      -2.64379953
H       -4.51866294      -2.14408000      -3.37615218
H       -3.64579508      -2.89788000      -4.41536772
H       -3.96378354      -3.55448000      -3.04710482
C       -0.10274775      -4.81003000      -2.88873930
C        1.03254497      -4.07662000      -3.08638728
C        0.94440023      -2.67548000      -3.19840405
H       -0.06415927      -5.77746000      -2.74978116
H        2.02931835      -4.53767000      -3.16266026
H        1.75113540      -2.38233000      -3.48205418
H       -1.91612325      -0.52239000      -2.30278209
