17
Properties=species:S:1:pos:R:3 pbc="F F F"
N       -1.41916454       0.00000000      -1.46783110
N       -1.15533599       0.54998900      -2.68683925
N        1.41916454      -0.00000000      -1.42163064
N        1.23173879       0.61610000      -2.61326289
C       -2.03695377       0.26716800      -3.63558256
H       -1.96622080       0.58132200      -4.50823876
C       -2.53446646      -0.71208300      -1.54775901
H       -2.87489863      -1.17008500      -0.81336364
C        2.57460174      -0.64322900      -1.44061538
H        2.87070818      -1.14080900      -0.71282080
C        0.01727622       1.40027500      -2.80564719
H        0.03243844       1.81324600      -3.68282753
H       -0.02259358       2.10530400      -2.14081620
P        3.51388660      -0.50723700      -2.91014396
C        2.21880310       0.45913800      -3.50067264
H        2.20680429       0.83478800      -4.35168861
P       -3.33023077      -0.74460700      -3.09717405
