14
Properties=species:S:1:pos:R:3 pbc="F F F"
C       -0.78395259       0.23289900      -2.67434723
C        0.73839065       0.40102000      -2.71369328
H        0.94280394       1.36948500      -2.85770790
C        1.44589538      -0.40501500      -3.80211114
H        1.41823030       0.06728800      -4.67150001
H        1.03666568      -1.30049800      -3.90662784
S        3.15947460      -0.53344400      -3.17592993
C        2.52956238      -0.41223500      -1.52942554
N        1.30277095      -0.00000000      -1.42195379
N        3.30465284      -0.73839600      -0.49406977
H        2.99036230      -0.67917800       0.32579972
H        4.12926440      -1.01212700      -0.63087092
O       -1.42481295       0.36928800      -3.73087674
O       -1.30277095       0.00000000      -1.53150450
