47
Properties=species:S:1:pos:R:3 pbc="F F F"
O       -1.69681796      -0.04813300      -3.60797238
N       -1.31578501       0.00000000      -1.34099316
N        1.31578501      -0.00000000      -1.60660503
C       -0.95733716      -0.10422400      -2.58205971
C        0.53319627      -0.43679500      -2.78858457
C        0.63566410      -1.97485000      -2.94515958
C        2.03173454       1.29373400      -1.81512486
C        1.10218934       2.49836700      -1.89481259
H       -2.09489157       0.08712100      -1.24377526
H        2.03288391      -0.56493800      -1.35989798
H        0.26428121      -2.34141600      -2.21741322
H       -0.01636757      -2.31001800      -3.65064094
H        2.48201457       1.30974400      -0.98687646
H        0.52239548       2.66494800      -1.05511821
C        2.07034004      -2.48230600      -3.09988367
C        2.72386866      -2.38926600      -4.32003816
C        4.02845311      -2.89026800      -4.44503224
C        4.63283736      -3.48745900      -3.38647029
C        4.01012659      -3.55522400      -2.17622627
H        2.25235575      -1.91882800      -5.04706728
H        4.54431298      -2.66778200      -5.32309128
H        5.44276742      -3.82190500      -3.35605466
C        2.72599375      -3.05883900      -2.02813347
H        2.11518225      -3.08371600      -1.19331253
C        1.90338723       3.76721700      -2.15310934
C        1.09003440       5.05206700      -2.05891542
C        1.90538770       6.29488900      -2.31130510
C        1.17914012       7.61144500      -2.14198939
C        2.03678470       8.82668600      -2.39886628
C        1.34687672      10.15322600      -2.23229149
H        2.30810878       3.73284800      -3.06088759
H        2.68381186       3.74590900      -1.52753373
H        0.43045238       5.06403300      -2.72927723
H        2.34377427       6.29309500      -3.14567706
H        2.66821411       6.23663100      -1.71649708
H        0.45072528       7.66711100      -2.76172065
H        0.79108070       7.61126900      -1.26740584
H        2.43731499       8.77068500      -3.26304847
H        2.84103479       8.73942800      -1.83728379
H        1.04707492      10.15308800      -1.21058740
H        1.97721358      10.97426000      -2.49831698
H        0.54137888      10.14673400      -2.94911888
H        4.44222997      -3.90536000      -1.44711310
H        2.58361666       1.21704900      -2.61559356
H        0.51378235       2.38289200      -2.66530443
H        0.75815449       5.02646400      -1.12064785
H        0.86534819      -0.04865300      -3.70300682
