28
Properties=species:S:1:pos:R:3 pbc="F F F"
C        0.01647358       0.10275100      -3.47632670
C       -1.15927516       0.66635500      -2.73158402
H       -1.96146175       0.65645800      -3.29486167
C       -0.72333339       2.13355700      -2.41736924
H       -1.07643382       2.74493200      -3.08311949
H       -1.04242868       2.40577200      -1.54281756
C        0.01367445      -1.42979200      -3.54446148
H        0.17962542      -1.78881200      -2.66964253
H       -0.83990596      -1.73553700      -3.85956621
C       -0.04591757       0.65020400      -4.91626156
H       -0.93086613       0.52468200      -5.26627127
N       -1.42560325       0.00000000      -1.43715453
H       -1.63152199      -0.85746300      -1.61363683
H       -2.16214752       0.37951200      -1.08669209
C        1.21889081       0.66204400      -2.75754775
C        0.79246226       2.12504600      -2.45305282
H        1.15225937       2.41124200      -1.59875571
H        1.11787866       2.72419500      -3.14352954
C        2.51436994       0.60259500      -3.54070320
H        3.21592048       1.01163400      -3.02976985
H        2.40845442       1.07231000      -4.37196999
H        2.73945624      -0.31397900      -3.71740240
N        1.42560325       0.00000000      -1.43220259
H        2.16008382       0.37078100      -1.06808447
H        1.62647857      -0.86107100      -1.59760403
H        0.58536201       0.17977900      -5.46408543
H        0.16816749       1.58598500      -4.91198249
H        0.70076843      -1.72519100      -4.14589281
