14
Properties=species:S:1:pos:R:3 pbc="F F F"
C        0.62561129       0.50485500      -2.69767651
H        0.80746200       1.48200700      -2.80858732
C       -0.88358131       0.27227300      -2.58089014
C        1.25595512      -0.27728700      -3.87173421
H        1.65074769       0.34494900      -4.53269263
N        1.33097508       0.00000000      -1.49298040
H        2.04680649       0.60347500      -1.30204415
O       -1.33097508      -0.00000000      -1.42024557
O       -1.56458294       0.34385800      -3.61465215
C        1.86121388      -1.30652100      -1.93989943
H        2.63022157      -1.58275300      -1.38107959
H        1.16083775      -2.00519300      -1.88982620
O        2.26711210      -1.09674600      -3.28513262
H        0.57559718      -0.83371000      -4.32561175
