35
Properties=species:S:1:pos:R:3 pbc="F F F"
N        1.33749997      -0.00000000      -1.54841520
H        2.01223654      -0.68774100      -1.36913013
O       -1.59084471       0.08196900      -3.59139351
C        0.58620264      -0.39296300      -2.76157620
H        0.93155843       0.11470500      -3.52539018
C       -0.90649141      -0.05978000      -2.57802452
C        2.03547534       1.31548800      -1.68781816
H        2.43401472       1.55257100      -0.83480205
H        1.38172775       1.99722000      -1.90804631
C        3.10528981       1.31114600      -2.73803811
C        2.89741465       1.94851600      -3.95249623
H        2.09964632       2.39861000      -4.12011007
C        4.31721537       0.69202500      -2.55446805
H        4.50217312       0.25604400      -1.75368162
O        6.17266716      -3.10816200      -4.11817685
H        6.40132711      -2.80606400      -4.84544933
C        4.85342551      -2.83417700      -3.90822769
C        4.07806010      -2.18046200      -4.85912366
C        2.16762261      -2.25872800      -3.36669019
C        2.96666192      -2.91105800      -2.44699688
H        2.60538853      -3.15672900      -1.62613433
C        4.29471062      -3.20967200      -2.72014661
H        4.80505300      -3.66641600      -2.09153653
C        0.73798726      -1.87571300      -3.05184449
H        0.43722312      -2.38227900      -2.28155956
C        2.75514176      -1.90642200      -4.57602902
H        2.24144383      -1.47098200      -5.21577369
O       -1.33749997      -0.00000000      -1.38759296
N        5.07011490       1.29717800      -4.73598922
C        3.88874085       1.90419400      -4.90678230
H        3.72723699       2.32273800      -5.72113824
C        5.26105271       0.71849500      -3.55626807
H        6.07916392       0.30731900      -3.39803832
H        0.17316886      -2.11205000      -3.80369908
H        4.44534451      -1.93103400      -5.67690662
