34
Properties=species:S:1:pos:R:3 pbc="F F F"
C       -1.30517136      -1.16837500      -2.33871310
H       -2.07290677      -1.18672300      -2.96223485
H       -1.32546764      -2.00095700      -1.80387169
C       -0.01209724      -1.10742500      -3.13154404
H       -0.01826281      -1.88161600      -3.76462497
C        1.27667051      -1.19504400      -2.32614614
H        2.03496228      -1.17506700      -2.97682899
C        1.40302314      -2.47975100      -1.52321260
H        1.31024518      -3.25672200      -2.12914585
H        0.67405678      -2.52399500      -0.85449811
C        2.75421119      -2.54928200      -0.80716582
H        2.78345518      -3.35167900      -0.22796341
H        3.48166714      -2.62217800      -1.47436077
C        2.95448679      -1.29905000       0.03728642
H        3.86238873      -1.31308500       0.43341507
H        2.29683522      -1.29354600       0.77722725
C        2.78643694      -0.03677200      -0.79399050
H        2.90480161       0.75858100      -0.21601318
H        3.48041868      -0.00910300      -1.49897170
C        1.30494515       1.23062500      -2.25458511
H        2.07498433       1.28900300      -2.87471746
H        1.32426175       2.02670800      -1.66640603
C        0.01610827       1.22568100      -3.05191391
H        0.01525156       2.04420000      -3.62659206
C       -1.25957982       1.24989400      -2.22328296
N       -1.42934846       0.00000000      -1.43677260
N        1.42934846      -0.00000000      -1.42596362
O       -0.00982887       0.08580700      -3.92463166
C       -2.78666007       0.00273600      -0.83407674
H       -2.87301011       0.76772700      -0.22768104
H       -3.45968158       0.07156100      -1.54375929
H       -2.92284903      -0.82872500      -0.33233339
H       -1.23119918       2.02099400      -1.60476240
H       -2.03653184       1.36433100      -2.82332072
