24
Properties=species:S:1:pos:R:3 pbc="F F F"
S        2.86165043      -0.18248500      -1.31824122
N       -1.31430104       0.00000000      -1.45683783
O        3.35165323       0.51245700      -0.16264712
F        2.69698013      -2.79328100      -1.77325613
F        4.47330482      -2.16472400      -0.71329870
F        2.57516831      -2.24374200       0.31582977
N        1.31430104      -0.00000000      -1.46620421
C       -0.78810990      -0.29143400      -2.66213024
C       -2.65466980       0.12379400      -1.30159107
C        0.71431953      -0.39978800      -2.75491118
H        0.97000519      -1.33193600      -2.97010227
H        1.04863275       0.18816500      -3.47793579
C       -1.59753183      -0.49518900      -3.77514292
H       -1.21669031      -0.67916500      -4.62637762
C       -3.17043619       0.56364600       0.04773420
H       -2.41821092       0.66981700       0.66648044
H       -3.78833055      -0.11206200       0.39806782
H       -3.64061428       1.41856500      -0.04483108
C        3.15392982      -1.94299900      -0.85163295
C       -3.50400050      -0.10519600      -2.37731726
H       -4.44541571      -0.04267500      -2.26427966
C       -2.97174032      -0.42575400      -3.61517199
H       -3.54637577      -0.59508300      -4.35235313
O        3.56191881      -0.07662300      -2.57609630
