41
Properties=species:S:1:pos:R:3 pbc="F F F"
N       -1.36751608       0.00000000      -1.50692050
O       -3.10515809      -0.36332200      -2.86443079
C        0.02169720       0.89632900      -3.34910640
H        0.02610859       1.54829000      -4.06763732
C       -1.24700670       1.06378300      -2.53833658
H       -1.24223753       1.94200000      -2.10309325
C       -2.54900720       0.89503600      -3.33870978
H       -3.15904104       1.62981500      -3.16550219
H       -2.36780748       0.85598200      -4.29115157
C       -2.35273950      -0.73672900      -1.80414865
O        3.19159442      -0.28317100      -2.75496855
N        1.36751608      -0.00000000      -1.49324702
C        1.26879971       1.06672400      -2.52465143
H        1.23685738       1.93800900      -2.07710824
C        2.61050361       0.93521700      -3.25629565
H        2.47510229       0.88248600      -4.21510730
H        3.18317301       1.69371200      -3.06274922
C        2.40833809      -0.68543400      -1.74068466
C        2.87927484      -1.89318000      -1.06062526
C        4.16382182      -1.99697200      -0.58551249
H        4.75752915      -1.28927600      -0.69624793
C        2.02015507      -2.97385600      -0.89104465
H        1.14335751      -2.92443300      -1.19722386
C       -2.77380397      -1.99286800      -1.16909033
C       -1.83054809      -2.88688000      -0.74684080
H       -0.92885986      -2.66753100      -0.80586858
C       -2.20882822      -4.11899200      -0.22990705
H       -1.56422906      -4.74446200       0.01246979
C       -3.53051277      -4.40277400      -0.08190695
H       -3.78269001      -5.22535000       0.27265064
C       -4.48111919      -3.52078200      -0.43831439
H       -5.37910784      -3.72170800      -0.30306615
C       -4.11029425      -2.29236000      -1.01583232
H       -4.76103589      -1.68778400      -1.29185596
C        4.57841024      -3.15094400       0.05736421
H        5.44741642      -3.21316900       0.38152803
C        3.72697021      -4.18435800       0.21646596
H        4.00515739      -4.95190100       0.66409894
C        2.46354817      -4.10496100      -0.27725930
H        1.89301607      -4.83477500      -0.19465611
H        0.02604873       0.01285300      -3.75041194
