32
Properties=species:S:1:pos:R:3 pbc="F F F"
C        1.28636260      -0.71776200      -2.38112098
C        2.48827421      -1.13315300      -3.01285967
C        2.45775150      -1.93067800      -4.13781599
H        3.25355900      -2.22857800      -4.51571163
C        0.06074376      -1.08142000      -2.98343789
C        4.86074516      -1.09383500      -2.90400955
H        4.92710066      -2.05090700      -2.86150617
H        5.56759135      -0.70086800      -2.38732587
H        4.93551526      -0.80851600      -3.81791111
O        1.39687603       0.00000000      -1.29185242
O        3.61032768      -0.68381200      -2.38199471
C        0.06485618      -1.86539900      -4.15788008
H       -0.74157309      -2.09387800      -4.55982708
C       -1.19713115      -0.56701800      -2.49679188
C       -1.90839756       2.80169600      -2.22451577
H       -1.02875724       2.44002100      -2.35219974
H       -1.84668820       3.74808500      -2.07522502
H       -2.44031970       2.63458300      -3.00585392
C       -2.55934026       2.13990900      -1.01637635
H       -2.02701883       2.33359200      -0.22928253
H       -3.43710220       2.52846300      -0.88193288
C       -2.70655298       0.63105000      -1.14841015
C       -3.40993628       0.07648000       0.08575657
N       -1.39687603      -0.00000000      -1.36855067
C        1.23659430      -2.29273200      -4.71258518
H        1.22217064      -2.82621800      -5.47425758
O       -3.54290461      -1.32016600       0.07076521
H       -1.93317573      -0.65808300      -3.05774780
H       -2.91073678       0.33654100       0.87599516
H       -4.29219421       0.47533100       0.15097653
H       -2.86901788      -1.62338900       0.31203588
H       -3.26909704       0.44648100      -1.92960510
