44
Properties=species:S:1:pos:R:3 pbc="F F F"
S        2.80614428      -0.54722700      -1.43056091
S       -2.86741931       0.21621400      -1.22062148
O        2.99401836      -1.96599100      -1.28024781
O       -3.23953079       1.38120000      -0.45252290
N        1.32396118      -0.00000000      -1.48234444
N       -1.32396118       0.00000000      -1.46892938
C        3.55954986       0.00663200      -2.87302184
H        4.49675584       0.15467000      -2.89815786
C        2.81170189       0.22865500      -3.96074391
H        3.25391672       0.41145700      -4.78183810
C        1.36565525       0.20382000      -3.95111453
C        0.63329250       0.34681700      -5.16282399
H        1.09427604       0.41880000      -5.98973575
C       -0.72193014       0.37881200      -5.13441469
H       -1.20427703       0.46849600      -5.94844874
C       -1.43267195       0.28010500      -3.91264719
C       -2.86790842       0.27520300      -3.88198310
H       -3.32481377       0.32329700      -4.71357092
C       -3.61227259       0.20549600      -2.77134118
H       -4.55723051       0.15003700      -2.83982710
C        0.69017632       0.10600900      -2.73607191
C       -0.72902850       0.14281700      -2.71664203
C        3.59489111       0.27768100      -0.08880611
C        3.27084968       1.59284700       0.20837366
H        2.56183871       2.03622800      -0.24134266
C        4.01960878       2.24341800       1.18567776
H        3.81784013       3.14401100       1.41172625
C        5.05012782       1.59120800       1.82508486
H        5.56391168       2.04786100       2.48053063
C        5.33848067       0.28626200       1.52162053
H        6.04529391      -0.15480000       1.97772499
C        4.61206285      -0.40718300       0.55359022
H        4.80729110      -1.31240200       0.34375591
C       -3.43626122      -1.20695100      -0.35088696
C       -3.22464582      -2.44813000      -0.92857096
H       -2.77117641      -2.52326600      -1.76033953
C       -3.68428406      -3.56924000      -0.27407388
C       -4.10384429      -1.06641800       0.83700668
H       -4.26098230      -0.20421800       1.20468574
C       -4.33307215      -3.44681400       0.93006476
H       -4.63709961      -4.22747300       1.37702471
C       -4.54999269      -2.21335100       1.49979568
H       -4.99907649      -2.14335700       2.33395514
H       -3.55078908      -4.42906600      -0.65515479
