44
Properties=species:S:1:pos:R:3 pbc="F F F"
S        2.80614416      -0.54722700      -1.43056038
S       -2.86741909       0.21621400      -1.22062136
O        2.99401867      -1.96599100      -1.28024703
O       -3.23953081       1.38120000      -0.45252309
N        1.32396152      -0.00000000      -1.48234515
N       -1.32396152       0.00000000      -1.46892876
C        3.55955040       0.00663200      -2.87302149
H        4.49675612       0.15467000      -2.89815697
C        2.81170268       0.22865500      -3.96074331
C        1.36565498       0.20382000      -3.95111390
C       -1.43267081       0.28010500      -3.91264799
C       -2.86790774       0.27520300      -3.88198385
H       -3.32481286       0.32329700      -4.71357158
C       -3.61227287       0.20549600      -2.77134224
H       -4.55723027       0.15003700      -2.83982695
C        0.69017646       0.10600900      -2.73607123
C       -0.72902850       0.14281700      -2.71664159
C        3.59489103       0.27768100      -0.08880611
C        3.27085009       1.59284700       0.20837338
H        2.56183869       2.03622800      -0.24134211
C        4.01960899       2.24341800       1.18567825
H        3.81784064       3.14401100       1.41172697
C        5.05012778       1.59120800       1.82508396
H        5.56391142       2.04786100       2.48053109
C        5.33848016       0.28626200       1.52162106
H        6.04529431      -0.15480000       1.97772552
C        4.61206320      -0.40718300       0.55358980
H        4.80729090      -1.31240200       0.34375644
C       -3.43626120      -1.20695100      -0.35088653
C       -3.22464523      -2.44813000      -0.92857138
H       -2.77117596      -2.52326600      -1.76033974
C       -3.68428379      -3.56924000      -0.27407432
H       -3.55078876      -4.42906600      -0.65515462
C       -4.33307245      -3.44681400       0.93006432
H       -4.63710008      -4.22747300       1.37702406
C       -4.54999247      -2.21335100       1.49979574
H       -4.99907655      -2.14335700       2.33395511
C       -4.10384480      -1.06641800       0.83700677
H       -4.26098322      -0.20421800       1.20468506
C        0.63329293       0.34681700      -5.16282402
H        1.09427671       0.41880000      -5.98973581
C       -0.72192930       0.37881200      -5.13441476
H       -1.20427642       0.46849600      -5.94844828
H        3.25391736       0.41145700      -4.78183758
