33
Properties=species:S:1:pos:R:3 pbc="F F F"
N       -1.29482790      -0.00000000      -1.48060587
N       -1.63077511       0.07302200      -3.69079101
C       -0.77014590       0.05890300      -2.65362135
C       -3.00255466       0.18162000      -3.13020067
H       -3.61301483      -0.48407000      -3.53634383
C       -2.75314926      -0.11498200      -1.63741079
H       -3.22159092       0.55547400      -1.06227805
C       -3.21024374      -1.48405000      -1.31359530
H       -2.73090720      -2.12992400      -1.87428569
H       -4.17277196      -1.55595600      -1.48364272
H       -3.02988312      -1.67472100      -0.36954372
H       -1.44421526       0.43451300      -4.61091187
N        1.29482790       0.00000000      -1.54374148
N        2.60594606       0.03893800      -1.67433892
N        2.82225573       0.14464300      -2.98873648
C        1.67137062       0.17964200      -3.69028458
H        1.56283443       0.25662100      -4.63069352
C        0.69362197       0.07977200      -2.73262869
C        4.20639425       0.29963300      -3.48628516
H        4.27931807      -0.09389200      -4.39038610
H        4.82862140      -0.18677500      -2.88897371
C        4.59329437       1.74997500      -3.53653063
C        4.78709158       2.35743700      -4.75747353
H        4.68817650       1.85226700      -5.55692636
C        5.12623144       3.69467000      -4.83140292
H        5.28282374       4.09817000      -5.67803878
C        5.23673868       4.43941800      -3.68525136
C        5.05766553       3.84680900      -2.46629216
H        5.15833006       4.35741100      -1.67219581
C        4.72546129       2.49473000      -2.38901069
H        4.59010415       2.08727800      -1.54244522
H       -3.37543181       1.08971300      -3.26157589
H        5.43805218       5.36591600      -3.73830032
