45
Properties=species:S:1:pos:R:3 pbc="F F F"
C       -1.34942321       0.07460300      -2.57054221
C       -2.57313458      -0.03835800      -3.27365751
H       -3.36332732      -0.19547500      -2.80777222
C       -2.59922423       0.08265000      -4.65511706
H       -3.40348704       0.01747300      -5.11708059
C       -1.43473061       0.30126800      -5.32804672
H       -1.44884136       0.42630000      -6.24945127
C       -0.25467649       0.33555400      -4.65670551
H        0.53497599       0.44250100      -5.13454123
C       -0.19329318       0.21502700      -3.27443261
C        1.11881751       0.16277600      -2.66518876
H        1.84282990       0.25656200      -3.24187541
C        2.85778294      -0.18498700      -1.07960019
H        2.93377477       0.04985700      -0.13000798
C        3.79187622       0.76264600      -1.79773282
H        3.49278609       1.66704000      -1.66918209
H        3.79881665       0.55858600      -2.73420026
N        1.40135392       0.00000000      -1.41824781
O       -1.40135392      -0.00000000      -1.24650591
C        3.22883929      -1.67272200      -1.15754923
C        3.03325643      -2.28270700      -2.55174513
H        3.58640521      -1.80856400      -3.19226859
C        4.72419359      -1.87475700      -0.78312167
H        5.28309778      -1.39926500      -1.41744802
H        4.88855071      -1.50575700       0.09949444
C        5.09648855      -3.37663800      -0.79220166
H        6.04155951      -3.48951100      -0.55508023
C        4.85068197      -3.89204500      -2.17590578
H        5.38346333      -3.38027400      -2.80603288
H        5.13485974      -4.81738300      -2.22804850
C        3.41570226      -3.79606400      -2.55287477
H        3.27524550      -4.17802300      -3.44577848
C        2.40799178      -2.48265800      -0.19086008
H        1.47063484      -2.40107800      -0.42616653
H        2.52175426      -2.11996500       0.70043347
C        4.24704353      -4.04847800       0.19963129
H        4.36719954      -3.62436100       1.06449726
H        4.52277305      -4.97540800       0.28148757
C        2.55954811      -4.48563400      -1.56763689
H        2.73574003      -5.43824100      -1.60273842
H        1.62848012      -4.34565200      -1.80008692
C        2.79623099      -3.99617100      -0.17664392
H        2.24810022      -4.49299700       0.46626557
H        4.67981755       0.66840600      -1.44329383
H        2.10681940      -2.18253700      -2.82287561
