30
Properties=species:S:1:pos:R:3 pbc="F F F"
S        2.20033276      -0.24388600      -3.44069907
N       -1.07962424      -0.00000000      -1.64655643
O        2.20192044       0.70378500      -4.53294797
N       -0.66638548      -0.04312400      -3.98761197
C        1.95395175      -1.85020700      -4.10662778
O        3.45492257      -0.25720900      -2.70371631
C        1.52214246      -2.86937000      -3.25915723
H        1.29592766      -2.66803200      -2.35791701
N        1.07962424      -0.00000000      -2.34675957
C       -2.39017436      -0.02659500      -1.83736448
C        1.74930742      -4.48532600      -5.03149787
C       -0.23156952      -0.01330100      -2.71507298
C        2.23814710      -2.13821200      -5.42279939
H        2.50402225      -1.44457700      -6.01442744
C        1.41628785      -4.16344900      -3.71512061
H        1.11418062      -4.84570900      -3.12542166
C        2.13353056      -3.43885200      -5.88018450
O       -4.20894764      -0.22824100      -3.45394603
C       -2.90416189      -0.12004500      -3.12599011
C       -1.98251166      -0.10116800      -4.15869087
H       -2.31399697      -0.13050900      -5.04763396
C       -5.11330718      -0.31514600      -2.35111121
H       -4.86491882      -1.07309700      -1.78278761
H       -6.02583033      -0.44395700      -2.68662978
H       -5.07165975       0.51316900      -1.82913807
N        1.70493389      -5.77555200      -5.44423117
H        1.85319056      -6.00601800      -6.27908868
H        1.33321406      -6.36703700      -4.93641543
H        2.32692019      -3.62716700      -6.79109398
H       -2.98055641       0.01811800      -1.09399547
