26
Properties=species:S:1:pos:R:3 pbc="F F F"
N       -1.32152648       0.00000000      -1.41560741
H       -2.30002826       0.47138100      -1.60388373
N        1.32152648      -0.00000000      -1.54468545
O       -1.54524965      -0.13331700      -3.68328008
C       -0.86708943      -0.17654700      -2.63187024
C        0.62752127      -0.51371200      -2.72140417
C        0.78732445      -2.00447800      -2.89853723
C        2.14088137      -2.49187400      -3.38263422
C        2.35973057      -3.85335700      -3.42989304
C        3.53796540      -4.38609000      -3.96563152
C        4.49847253      -3.54256000      -4.41796033
C        4.31414008      -2.17812600      -4.37257253
C        3.11053160      -1.66870100      -3.87016499
C        1.80961967       1.35328700      -1.70899258
H        2.21221480      -0.45235200      -1.25751335
H        0.99256129      -0.07348500      -3.43473712
H        0.03704117      -2.36781900      -3.59038542
H        0.60568864      -2.49489800      -1.92501479
H        1.59463945      -4.54437700      -3.01993677
H        3.66957408      -5.46868300      -4.01701081
H        5.42455535      -3.98364900      -4.81735621
H        5.11971715      -1.52824900      -4.71511919
H        2.92955382      -0.56709700      -3.91185894
H        1.02622525       1.99950500      -2.01885615
H        2.60941363       1.35334200      -2.45281592
H        2.22737810       1.69271300      -0.76390947
