79
Properties=species:S:1:pos:R:3 pbc="F F F"
F        1.72019638       2.71535000      -2.52128858
F       -2.61129253       2.61453000      -4.29792260
F       -1.05926645      -2.86072000      -2.66126986
F        2.66972423      -2.10687000      -5.37843416
O       -2.32755425      -0.31902000      -3.41109171
O        2.37005316       0.08634000      -3.39497712
N       -1.40859504       0.00000000      -1.40583585
N        1.40859504      -0.00000000      -1.38309399
C       -2.88596324      -0.03070000      -1.14766782
H       -3.09195485      -0.71217000      -0.44530161
C       -3.43227860      -0.49849000      -2.49551393
H       -3.70837367      -1.44776000      -2.45437775
H       -4.21093219       0.04921000      -2.76950226
C       -1.24185940      -0.12466000      -2.65792472
C        0.01454505       0.00693000      -3.46797372
C        1.26922749       0.02125000      -2.63882748
C        3.48647445       0.08540000      -2.47587290
H        4.03669522       0.89824000      -2.59694534
H        4.05550483      -0.71113000      -2.62014436
C        2.86327834       0.05745000      -1.07936340
H        3.05069002       0.93831000      -0.64458679
C        3.32244918      -1.02215000      -0.14125163
C        2.92636968      -2.39158000      -0.54939633
H        3.31236940      -2.59721000      -1.43732964
H        1.93991438      -2.44275000      -0.62254229
C        4.83965970      -0.90766000       0.04959641
H        5.29201450      -1.05447000      -0.81860917
C       -3.42125705       1.33930000      -0.71132508
H       -3.25281057       1.98961000      -1.45206168
C       -2.72949121       1.84891000       0.52885542
H       -1.77231935       1.99468000       0.32468860
C       -5.51286834       2.55507000       0.01314973
H       -5.40833980       3.25406000      -0.68144224
H       -6.48081610       2.43994000       0.18804709
C       -4.92977725       1.24660000      -0.49221066
H       -5.36947829       1.00153000      -1.34444833
H       -5.11957115       0.52960000       0.16486242
C       -0.08842078       1.37121000      -4.25556647
H        0.77941666       1.54672000      -4.69760150
H       -0.77248522       1.27570000      -4.96530026
C       -0.44133721       2.55142000      -3.41114154
C        0.43951576       3.17631000      -2.53513145
C        0.11724742       4.23974000      -1.72674823
H        0.74759973       4.59350000      -1.11147033
C       -1.14471406       4.78211000      -1.83132671
H       -1.38208877       5.53191000      -1.29904922
C       -2.06275830       4.23998000      -2.70716348
H       -2.93085712       4.61567000      -2.78980407
C       -1.70037992       3.15162000      -3.45560046
C        0.15176500      -1.13280000      -4.53566921
H       -0.74890311      -1.34154000      -4.89045481
H        0.69777840      -0.79442000      -5.28897756
C        0.77176324      -2.39955000      -4.02505460
C        0.16531322      -3.23446000      -3.10715245
C        0.71539269      -4.39058000      -2.63125061
H        0.24808448      -4.92619000      -2.00225114
C        1.95662880      -4.76036000      -3.08167509
H        2.36084588      -5.55709000      -2.75363163
C        2.61882865      -3.99252000      -3.99891405
H        3.47941509      -4.24612000      -4.31649397
C        2.00909392      -2.84203000      -4.45239489
C       -3.32790686       3.14868000       1.05761396
H       -2.88513733       3.39343000       1.90878070
C       -4.81653488       2.99996000       1.28625733
H       -5.19443995       3.86616000       1.58419240
H       -4.97675468       2.33401000       2.00055058
C        3.42990660      -3.44741000       0.49945912
H        2.98485078      -3.29858000       1.37014868
C        4.95538118      -3.29803000       0.66015686
H        5.27468907      -3.93769000       1.34423490
C        5.34586176      -1.92247000       1.05807876
H        6.33105069      -1.86302000       1.12170767
H        4.96803081      -1.71844000       1.95039340
H        3.21196409      -4.36142000       0.18993872
H        5.39574759      -3.52425000      -0.19770161
H        5.06275673       0.00488000       0.36080117
H       -2.78557324       1.15749000       1.23539544
H        2.89642942      -0.84293000       0.74695217
H       -3.16455440       3.87562000       0.40620288
