22
Properties=species:S:1:pos:R:3 pbc="F F F"
C       -0.69602429      -0.19915000      -2.81810271
C        0.67123007       0.45491200      -2.74508922
H        0.53231440       1.42213300      -2.67115299
C        1.48993197       0.20278600      -4.00789990
H        2.39945171       0.50753000      -3.86045376
C        1.51648422      -1.27260900      -4.41443113
H        2.02898758      -1.77714700      -3.76228485
H        1.95476951      -1.36252100      -5.27570118
C        0.11569515      -1.84047800      -4.50190884
H       -0.37361286      -1.38861500      -5.20642499
H        0.16148234      -2.78331100      -4.72454361
C       -0.62416349      -1.66647800      -3.17747013
H       -0.16063542      -2.15246000      -2.47731927
H       -1.52059987      -2.02859500      -3.25309687
N       -1.34015739       0.00000000      -1.48615265
H       -1.77792749       0.77474400      -1.48502852
H       -1.93200956      -0.64914800      -1.34653311
N        1.34015739      -0.00000000      -1.49411439
H        1.66852069      -0.81894800      -1.60709079
H        2.01488920       0.54693400      -1.29525131
H       -1.22939882       0.26412900      -3.49726255
H        1.11691850       0.72545400      -4.73526919
