17
Properties=species:S:1:pos:R:3 pbc="F F F"
O       -1.32573263       0.00000000      -1.44783646
O       -1.56957510       0.32619800      -3.61647006
O        2.31805665      -1.27201400      -3.10596441
N        1.32573263      -0.00000000      -1.47981082
C       -0.87331874       0.20491800      -2.61937851
C        0.63949057       0.34189900      -2.75430088
C        1.24114361      -0.62984000      -3.80097820
C        1.79171888       0.04087100      -5.03105534
C        1.93550762      -1.30713300      -1.75152497
H        1.92968691       0.60433000      -1.31065978
H        0.83711999       1.29207200      -3.01185049
H        0.63973766      -1.31525900      -4.02208837
H        1.07386399       0.61898900      -5.39825623
H        2.19507976      -0.65190900      -5.64026247
H        2.47003493       0.66856600      -4.80853956
H        1.16189615      -2.02590200      -1.61513517
H        2.79720480      -1.35840500      -1.21736038
