13
Properties=species:S:1:pos:R:3 pbc="F F F"
O       -1.32699164       0.00000000      -1.41191285
N        1.32699164      -0.00000000      -1.44114228
C       -0.82350793      -0.01212800      -2.59623501
C        0.67797488      -0.41614700      -2.72196961
C        0.88475080      -1.90936900      -2.75157927
H        1.06207788       0.03305300      -3.62955368
H        0.12381648      -2.36468800      -3.35492391
H        0.81124125      -2.29539500      -1.74229770
O        2.13455868      -2.20506700      -3.25684285
H        2.77564309      -2.91844700      -3.72226734
O       -1.49530073       0.00580700      -3.69492112
H        1.73925923       0.99322500      -1.54885393
H        2.11611192      -0.69087200      -1.19454290
