45
Properties=species:S:1:pos:R:3 pbc="F F F"
O       -1.39217521       0.00000000      -1.28927869
N        1.39217521       0.00000000      -1.38263601
C       -0.09518985       0.97340700      -3.06710842
C       -1.30151311       0.62156500      -2.44256086
C       -2.52406085       0.91648800      -3.09945176
C       -1.37387650       1.97936300      -4.93471640
C       -0.11607642       1.70655700      -4.30719807
C        1.15977304       0.53179400      -2.54894085
C        2.78747650      -0.48735900      -1.07754666
C        3.71604709       0.71665800      -0.76738100
C        5.10702110       0.16848200      -0.36703657
C        5.00303717      -0.72150000       0.84777389
C        4.08485396      -1.88588800       0.54404246
C        4.64482564      -2.71224000      -0.63763253
C        4.77717191      -1.81736600      -1.84212584
C        3.40635122      -1.28142200      -2.23421099
C        2.71262158      -1.38260900       0.15048252
C        5.69022970      -0.65237700      -1.52611143
H       -3.34187941       0.65379500      -2.68596086
H        1.91457512       0.63864100      -3.11790952
H        3.35068441       1.23075000      -0.05338201
H        3.79862277       1.26929100      -1.53971563
H        5.68565996       0.89295500      -0.17348353
H        4.66213185      -0.21994200       1.57391523
H        5.87133195      -1.04573000       1.06420255
H        4.01285403      -2.44297600       1.31960346
H        4.05581519      -3.42926800      -0.84004631
H        5.50054822      -3.06315100      -0.40807703
H        5.14440003      -2.30666100      -2.56800940
H        3.49623722      -0.70801300      -2.98715942
H        2.83878059      -2.00756100      -2.45272972
H        2.15167515      -2.12920400      -0.03875981
H        2.34101402      -0.88965900       0.87364884
H        6.54205739      -0.98605700      -1.27502509
H        5.77039182      -0.10010800      -2.28993908
C       -1.40420920       2.70196200      -6.15580139
C       -0.24596630       3.13514100      -6.72773061
H       -2.23767760       2.87004100      -6.58343286
H       -0.27077903       3.61415500      -7.54968853
C       -2.56464055       1.55663100      -4.29019137
H       -3.40465446       1.74051700      -4.70521088
C        0.95573305       2.89617200      -6.11804366
C        1.02200829       2.20130100      -4.94439800
H        1.75127140       3.21727600      -6.52475381
H        1.87661544       2.04993900      -4.55034783
