45
Properties=species:S:1:pos:R:3 pbc="F F F"
O       -1.38057195       0.00000000      -1.29780755
C       -0.13032617       0.61289200      -3.24338877
C       -1.32299694       0.30918900      -2.55967477
C       -2.55555525       0.29431600      -3.28487313
C       -2.61602827       0.62756000      -4.58006361
C       -1.53003979       1.36775000      -6.66724174
C       -0.40740540       1.73496400      -7.36693919
C        0.81059382       1.78358900      -6.71410979
C        0.92690331       1.43606500      -5.39218440
C       -1.44783964       1.01559500      -5.30378478
C       -0.19673548       1.02349200      -4.64203387
C        1.14415061       0.37726300      -2.63625224
H       -3.35501304       0.04821000      -2.83073303
H       -3.45771154       0.60159400      -5.02604220
H       -2.37224992       1.35340500      -7.10259097
H       -0.47373907       1.95079600      -8.28865082
H        1.58286806       2.06674600      -7.18829298
H        1.77561937       1.47570900      -4.97006897
N        1.38057195      -0.00000000      -1.41756440
C        3.88609792      -0.28452200      -2.04548919
C        2.76939828      -0.32023000      -0.99282782
C        2.80068735      -1.70155200      -0.29994966
C        4.12581707      -1.81657600       0.44707734
C        5.28297231      -1.72089400      -0.53500125
C        5.18291820      -2.86690700      -1.53717912
C        3.86343304      -2.76342400      -2.29811398
C        3.80433609      -1.43947900      -3.05069552
C        5.21179038      -0.39125100      -1.28774411
C        2.67415338      -2.81848200      -1.33009296
H        3.85309451       0.54334000      -2.51172102
H        3.00419223       0.32030200      -0.33069386
H        2.08516797      -1.75675400       0.31919014
H        4.18909833      -1.11851400       1.08788404
H        4.15787143      -2.65737400       0.89458093
H        6.10800906      -1.77429700      -0.06478410
H        5.90716282      -2.81906600      -2.15135752
H        5.21747401      -3.69734100      -1.07473041
H        3.79806693      -3.48245300      -2.91847629
H        2.99214525      -1.38543800      -3.53633101
H        4.53897464      -1.38554900      -3.65423175
H        5.93362838      -0.34251700      -1.90484904
H        5.28005738       0.32497200      -0.66573588
H        2.66273165      -3.65541800      -0.88158535
H        1.86339253      -2.70710900      -1.81203383
H        1.90674641       0.51080000      -3.19024335
