68
Properties=species:S:1:pos:R:3 pbc="F F F"
N       -1.35105000       0.00000000      -1.51172000
N        1.35105000       0.00000000      -1.51172000
H       -1.56883000      -0.87750000      -1.61368000
H        1.56883000       0.87750000      -1.61368000
C       -2.66525000       0.67962000      -1.31460000
C        2.66525000      -0.67962000      -1.31460000
H       -3.28346000       0.36789000      -1.99433000
C       -0.67534000       0.35257000      -2.78313000
C        0.67534000      -0.35257000      -2.78313000
H       -0.51685000       1.31954000      -2.78909000
H        0.51685000      -1.31954000      -2.78909000
C       -1.46355000      -0.00898000      -4.02830000
C        1.46356000       0.00898000      -4.02830000
H       -1.65611000      -0.96055000      -4.02516000
H        1.65611000       0.96054000      -4.02516000
H       -2.30690000       0.46923000      -4.02830000
H        2.30690000      -0.46923000      -4.02830000
C       -0.68038000       0.34455000      -5.27377000
C        0.68038000      -0.34455000      -5.27377000
H       -0.55618000       1.30417000      -5.31560000
H        0.55618000      -1.30417000      -5.31560000
H       -1.18093000       0.07111000      -6.05912000
H        1.18093000      -0.07111000      -6.05912000
C       -2.59246000       2.18194000      -1.37944000
C       -1.95518000       2.91509000      -0.39121000
H       -1.51337000       2.46808000       0.29375000
C       -1.96154000       4.29907000      -0.40167000
H       -1.52581000       4.76391000       0.27597000
C       -2.61503000       5.00926000      -1.41604000
C       -2.65805000       6.48900000      -1.40422000
C       -1.61269000       7.24477000      -0.90049000
C       -2.74181000       9.28237000      -1.45264000
C       -3.79792000       8.54961000      -1.94727000
H       -4.53980000       8.98709000      -2.30073000
C       -3.75977000       7.17105000      -1.92113000
H       -4.48141000       6.68874000      -2.25367000
C       -3.22959000       4.26370000      -2.41472000
H       -3.66139000       4.70583000      -3.11014000
C       -3.21575000       2.88347000      -2.39903000
H       -3.63244000       2.41480000      -3.08608000
C       -1.65408000       8.62481000      -0.92245000
H       -0.94243000       9.11407000      -0.57631000
C        2.59246000      -2.18194000      -1.37944000
C        1.95518000      -2.91509000      -0.39121000
H        1.51337000      -2.46808000       0.29375000
C        1.96153000      -4.29907000      -0.40167000
H        1.52582000      -4.76391000       0.27597000
C        2.61503000      -5.00926000      -1.41604000
C        2.65805000      -6.48900000      -1.40422000
C        1.61269000      -7.24477000      -0.90049000
H        0.87021000      -6.81467000      -0.54075000
C        1.65408000      -8.62481000      -0.92245000
H        0.94243000      -9.11407000      -0.57631000
C        2.74181000      -9.28237000      -1.45264000
H        2.76274000     -10.21178000      -1.47669000
C        3.79792000      -8.54961000      -1.94727000
H        4.53980000      -8.98709000      -2.30073000
C        3.75977000      -7.17105000      -1.92113000
H        4.48141000      -6.68874000      -2.25367000
C        3.22959000      -4.26370000      -2.41472000
H        3.66139000      -4.70583000      -3.11014000
C        3.21575000      -2.88347000      -2.39903000
H        3.63244000      -2.41480000      -3.08608000
H        3.02357000      -0.42041000      -0.45082000
H       -2.76274000      10.21178000      -1.47669000
H        3.28346000      -0.36789000      -1.99433000
H       -0.87021000       6.81467000      -0.54075000
H       -3.02357000       0.42041000      -0.45082000
