24
Properties=species:S:1:pos:R:3 pbc="F F F"
S        2.84888435      -0.22894500      -1.64292513
O       -1.30187748       0.00000000      -1.42044502
O       -1.60550355       0.50143800      -3.55697691
O        3.34083855      -0.80111800      -0.40591844
O        3.20831530      -0.96417600      -2.84641131
N        1.30187748      -0.00000000      -1.50728300
C       -0.86953412       0.30780700      -2.58746079
C        0.62501644       0.44713900      -2.74512318
H        0.85024195       1.37271100      -2.92511564
H        0.92672710      -0.08896900      -3.49551886
C        3.63439327       1.35987400      -1.81851007
C        4.81246942       1.47472200      -2.54433767
H        5.17000548       0.73054200      -2.97162760
C        5.45426532       2.70031600      -2.63054293
H        6.24403235       2.77012300      -3.11846871
C        4.94069024       3.82642800      -2.00194902
C        3.75378127       3.69719500      -1.30212416
H        3.38405565       4.44327300      -0.88728474
C        3.09383151       2.47680200      -1.20551908
H        2.29647059       2.41156200      -0.73285502
C        5.64653993       5.15917300      -2.11509281
H        6.53225187       5.08502100      -1.75279826
H        5.70029542       5.41539200      -3.03937292
H        5.15463161       5.82367700      -1.62673301
