59
Properties=species:S:1:pos:R:3 pbc="F F F"
O        2.37898042      -0.32689000      -3.36022375
O       -2.35648391      -0.44440000      -3.35236771
N        1.39487837       0.00000000      -1.39358255
N       -1.39487837      -0.00000000      -1.40287427
C        2.84155764      -0.06090000      -1.06668745
C        3.49184669      -0.06382000      -2.44796870
C        1.26830009      -0.20451000      -2.64248764
C        0.00504111      -0.34175000      -3.46296846
C        0.04426639      -1.74664000      -4.08661617
C        0.63203252      -1.98676000      -5.31022477
C        0.64942127      -3.27639000      -5.82428451
C       -0.06339600       0.82632000      -4.46681697
C       -0.86310193       0.73255000      -5.60310413
C       -0.98953322       1.82138000      -6.45101164
C       -0.34042930       3.00534000      -6.16091199
C        0.45366006       3.10021000      -5.04270938
C        0.58908510       2.01813000      -4.19802258
C       -1.24906285      -0.24726000      -2.63795023
C       -3.45902269      -0.47000000      -2.40237219
H        3.08787801       0.71134000      -0.57124307
H        3.86723868       0.79005000      -2.64951741
H        4.14075076      -0.75710000      -2.60958300
H        1.02162396      -1.29724000      -5.82415248
H        1.07542427      -3.39073000      -6.65876789
H       -1.31790204      -0.09104000      -5.76712800
H       -1.52353100       1.69205000      -7.21369215
H       -0.45447953       3.69227000      -6.78632170
H        0.91866974       3.89230000      -4.88294399
H        1.14685310       2.12800000      -3.42426090
H       -4.16457649       0.04922000      -2.79288124
C        0.10234862      -4.32177000      -5.13280506
C       -0.45140061      -4.08918000      -3.89387987
C       -0.47311187      -2.81347000      -3.37151290
H        0.08769492      -5.18053000      -5.54078999
H       -0.74538314      -4.86055000      -3.43394037
H       -0.92458307      -2.64372000      -2.53100095
C        3.13659112      -1.28304000      -0.19935060
C        2.69525454      -2.58650000      -0.83216438
C        4.61454104      -1.31704000       0.15645972
H        2.63786588      -1.19400000       0.62615920
H        2.91602424      -3.30964000      -0.22988733
H        3.14372935      -2.75598000      -1.65532555
H        1.74131746      -2.59904000      -1.01005378
H        4.71171718      -1.99401000       0.82394858
H        4.95245678      -0.50334000       0.52784733
H        5.17673285      -1.43373000      -0.61119056
C       -2.84893459       0.08077000      -1.11873135
H       -2.98977226      -0.48008000      -0.33761610
C       -3.27265903       1.51070000      -0.80376498
C       -2.97779481       2.45612000      -1.94129096
C       -2.65619141       2.00635000       0.48481994
H       -4.24332957       1.47205000      -0.69426141
H       -3.35021549       3.30013000      -1.70701222
H       -2.01588079       2.54500000      -2.12765870
H       -3.27991365       2.16905000      -2.79652432
H       -3.05270433       2.86551000       0.69859623
H       -1.69852795       2.11848000       0.43273498
H       -3.73204992      -1.38774000      -2.28870022
H       -2.87940225       1.39149000       1.19336953
