48
Properties=species:S:1:pos:R:3 pbc="F F F"
N        2.60555423      -0.40716200      -3.25158948
N        1.41907554       0.00000000      -1.41647108
C        3.49304038       0.08958200      -2.30437251
C        1.38086603      -0.42609300      -2.66640645
C        2.74432761       0.35039100      -1.16649372
C        3.32798054       0.92631800      -0.04346556
H        2.83057332       1.12269100       0.71770357
C        4.67408514       1.19084700      -0.11265899
H        5.09805605       1.57047800       0.62298667
C        5.42085485       0.90572000      -1.25123878
H        6.33261813       1.09095300      -1.25145350
C        4.85462402       0.36091700      -2.36972639
H        5.35373068       0.18113000      -3.13279451
C        2.99641480      -0.86891400      -4.57422853
H        2.28797283      -0.66140500      -5.20411241
C        3.26082020      -2.29534100      -4.60984787
H        2.44868066      -2.77700500      -4.43964672
H        3.60018501      -2.53664100      -5.47494237
H        3.91037768      -2.51776100      -3.93882367
O        0.02622157      -2.35334600      -3.27885074
C        0.11483951      -0.92867400      -3.30287475
C       -1.72080184      -0.47280800      -4.89447375
H       -1.99930811       0.21660900      -5.51789075
C       -0.18210760      -0.54603000      -4.77207365
H        0.17529250      -1.21488600      -5.37618165
H        0.21689228       0.31161500      -4.98646989
N       -2.07673592      -0.13306000      -3.51578117
N       -1.41907554      -0.00000000      -1.39990935
C       -3.17904022       0.30836000      -2.82675870
C       -1.08646378      -0.31456200      -2.63575873
C       -2.76709273       0.39289100      -1.48508558
C       -3.66473438       0.76360800      -0.51124768
H       -3.40458952       0.83643300       0.37871081
C       -4.96979096       1.02460500      -0.89725386
H       -5.59888143       1.26417800      -0.25517319
C       -5.35473912       0.93460900      -2.23019414
H       -6.23829911       1.11954000      -2.45548900
C       -4.48432331       0.58563100      -3.22300149
H       -4.74892702       0.53581700      -4.11347117
C        0.23346492      -2.99153500      -2.02052064
H        1.14750301      -2.85675000      -1.72432436
H       -0.36383407      -2.61585100      -1.35352562
C       -0.04253675      -4.45261900      -2.19541498
H       -0.96378801      -4.57784900      -2.43532884
H        3.79203775      -0.39088800      -4.85415249
H       -2.09911456      -1.32491400      -5.16350475
H        0.13993115      -4.91346800      -1.37439088
H        0.51881287      -4.80252300      -2.89127312
