18
Properties=species:S:1:pos:R:3 pbc="F F F"
N        1.30558852       0.00000000      -1.48480108
C        0.66176225       0.50592800      -2.70218244
H        2.11165001       0.24149500      -1.48861414
H        1.54908268      -0.83029800      -1.63091937
C        1.20065406      -0.10116300      -3.98239631
H        0.96647204      -1.04206900      -3.99515046
H        0.74894621       0.31890900      -4.73076025
C        2.69407295       0.01754800      -4.20419970
H        2.93337910      -0.47151900      -5.00640883
C        3.14607099       1.40181400      -4.33852572
O       -1.30558852      -0.00000000      -1.43130805
C       -0.85261195       0.28292700      -2.57624111
O       -1.55621943       0.37922700      -3.59292297
H        3.15775498      -0.39403500      -3.45788752
H        0.81825014       1.47209800      -2.74145464
H        4.09681887       1.41719500      -4.47285074
H        2.71048496       1.80887400      -5.09162428
H        2.92848636       1.88897300      -3.54083217
