26
Properties=species:S:1:pos:R:3 pbc="F F F"
C        1.19469437       0.25630300      -2.65410997
C        2.48945638       0.23674000      -3.45758656
H        2.39358396      -0.27653200      -4.26247617
H        2.76786417       1.12817900      -3.68210667
C        3.45293248      -0.41014500      -2.50597300
H        3.54137740      -1.34689300      -2.69539882
H        4.31773620       0.00225200      -2.55900602
C        2.81545833      -0.17701400      -1.11102483
H        2.95954547      -0.93751500      -0.54262883
N        1.37679139      -0.00000000      -1.38452382
C        3.36600767       1.07310300      -0.46836184
O        2.93886250       2.16819000      -0.65621753
O        4.42797966       0.82411700       0.27356172
C        5.05191313       1.95940300       0.91760721
H        4.41964926       2.38428400       1.50166853
H        5.34408825       2.58639600       0.25211076
O       -1.37679139       0.00000000      -1.34575663
C       -1.28904554       0.32544900      -2.58559477
C       -0.06300288       0.49724600      -3.25344966
C       -0.05408118       0.92816300      -4.63107509
N       -0.03207982       1.30158200      -5.71435717
C       -2.58030645       0.43614100      -3.31670046
H       -3.30436994       0.29305400      -2.70287319
H       -2.65728269       1.31157800      -3.70394900
H       -2.61322694      -0.22561800      -4.01164355
H        5.80699718       1.65895300       1.42697177
