21
Properties=species:S:1:pos:R:3 pbc="F F F"
N        1.32299742       0.00000000      -1.48304895
C        0.64683664       0.64730400      -2.62221246
C        1.34304783       0.46919300      -3.96637006
C        2.64066188       1.27691800      -4.14074593
C        3.26403746       0.94808000      -5.48586513
C        2.38706874       2.77801300      -4.04778846
H        1.43047058      -0.73997400      -1.58364405
H        2.06386676       0.32796700      -1.26651366
H        0.56839172       1.47280700      -2.39414449
H        0.67711405       0.70621100      -4.58608492
H        1.57225461      -0.49095700      -4.03981176
H        3.27318055       0.99569900      -3.49001474
H        2.66395938       1.12360700      -6.05247914
H        3.41490966       0.08469600      -5.56651137
H        3.97832422       1.53871100      -5.64783807
H        2.06650614       3.09423000      -3.26535711
H        3.11607432       3.25943900      -4.22841107
H        1.86915297       2.95403100      -4.72143420
O       -1.32299742      -0.00000000      -1.44619721
O       -1.43229443       0.00183300      -3.67865255
C       -0.81443738       0.16209000      -2.61692634
