52
Properties=species:S:1:pos:R:3 pbc="F F F"
N        2.53975065       0.37372000      -5.82894667
N        0.87384216       1.94879000      -5.05909350
N        1.81104051       2.14551000      -7.19756998
H        1.85461344       2.57563000      -7.96473311
N       -1.31148401       0.00000000      -1.51777736
N        1.31148401      -0.00000000      -1.53197815
N        1.47886541       0.12306000      -3.83024916
C        0.95943424       2.57703000      -6.21643888
C        2.59816917       1.03900000      -6.98110707
C        1.64324255       0.83732000      -4.95111902
C       -1.52160185       0.03215000      -3.89843139
H       -1.12061395       0.14071000      -4.75233080
C       -0.78494173       0.18611000      -2.73730074
C       -2.86339304      -0.28570000      -3.77273829
H       -3.40694860      -0.37920000      -4.54820598
C       -2.60215183      -0.33783000      -1.40480376
C        0.67782710       0.61329000      -2.71230120
H        0.74195620       1.60904000      -2.65663783
C        1.79890597      -1.31331000      -2.02830393
H        1.06390943      -1.97804000      -2.04484954
C        2.30530702      -1.03074000      -3.44110257
H        2.19153017      -1.74309000      -4.05606023
N        0.23580036       3.66551000      -6.47165326
H        0.34837944       4.06132000      -7.24952928
C       -0.73798284       4.24422000      -5.53918836
H       -0.31801210       4.30002000      -4.63332380
C       -1.99890375       3.40777000      -5.43914457
H       -2.43121670       3.36047000      -6.31776487
H       -2.61320799       3.81690000      -4.79467218
H       -1.76835441       2.50250000      -5.14067698
C       -1.04805414       5.65813000      -6.02115628
H       -0.23145095       6.19893000      -5.99663074
H       -1.72382914       6.06122000      -5.43576061
H       -1.39027913       5.62334000      -6.93836914
C       -3.41632827      -0.46827000      -2.51203086
H       -4.33715730      -0.67933000      -2.41204445
N        3.41085556       0.68211000      -7.94961253
C        4.27893364      -0.49889000      -7.90726963
H        4.60522139      -0.62351000      -6.97068305
C        5.47220262      -0.24016000      -8.81010753
H        5.15843777      -0.04628000      -9.71840493
H        6.04808967      -1.03214000      -8.82523062
H        5.97869390       0.52672000      -8.46932834
C        3.51272409      -1.73356000      -8.32218953
H        2.76708792      -1.87904000      -7.70287935
H        3.16424148      -1.61272000      -9.23008944
H        2.10233444       0.55508000      -1.27290061
H        4.10993281      -2.51045000      -8.30232582
H        2.52804508      -1.65853000      -1.45459889
H        3.27142663      -0.76553000      -3.46538055
H       -2.96588644      -0.49259000      -0.54137450
H        3.43668365       1.18511000      -8.67167451
