24
Properties=species:S:1:pos:R:3 pbc="F F F"
O        1.40914646      -0.00000000      -1.33973545
O       -1.40914646       0.00000000      -1.34995609
O        1.05600165      -0.72630700      -5.37596829
O        0.03433318      -2.58999500      -4.44691162
C       -1.20829771      -0.34790300      -2.56026827
H       -1.97879279      -0.42706700      -3.10969864
C        0.00631502      -0.62236600      -3.15938221
C        1.24904551      -0.36521200      -2.54628776
C        2.44549795      -0.47223100      -3.40049603
C        2.28768528      -0.64269800      -4.78161598
C       -0.01630654      -1.18448200      -4.54821679
H       -0.88138333      -0.92816100      -4.98066352
C       -0.17140025      -3.24743400      -5.70128639
H       -0.12151093      -4.21822000      -5.57274769
H       -1.05446581      -3.00961300      -6.05339560
H        0.52102533      -2.96521300      -6.33528864
C        3.73127225      -0.36696400      -2.87229346
C        4.83490695      -0.40533600      -3.70147184
C        4.65967291      -0.55907900      -5.07578984
H        5.41941566      -0.57731600      -5.64479981
C        3.40049911      -0.68734700      -5.62089267
H        3.84845241      -0.26882400      -1.93427685
H        5.70954709      -0.32657700      -3.33759671
H        3.29218442      -0.80366100      -6.55790755
