48
Properties=species:S:1:pos:R:3 pbc="F F F"
N       -1.38508869      -0.00000000      -1.54882138
C       -0.67929466       0.34293000      -2.80214252
H       -0.59505521       1.33727300      -2.85782981
C       -1.41862757      -0.15700400      -4.05756539
H       -1.45012661      -1.14657100      -4.05657694
H       -2.34851317       0.18413500      -4.05767759
C       -0.68272728       0.33797800      -5.30745294
H       -1.13654573      -0.01001800      -6.11530841
H       -0.71812624       1.32736700      -5.33920142
C        0.76957737      -0.11507500      -5.30809562
H        1.23625845       0.28758800      -6.08189746
H        0.80378948      -1.09920100      -5.41077613
C        1.49567081       0.28450600      -4.01644727
H        1.55392738       1.27124600      -3.95649263
H        2.41572179      -0.08192100      -4.02136088
C        0.72475112      -0.26533600      -2.80779379
H        0.63580859      -1.25540700      -2.91710538
N        1.38508869       0.00000000      -1.50590023
C       -2.50776321       0.56905900      -1.30637112
O       -3.07551831       1.50569400      -2.10817790
C       -4.27149978       2.06357000      -1.48165105
H       -5.06382653       1.95038300      -2.06529633
H       -4.15220191       3.02579000      -1.28421612
C       -4.41860339       1.27021900      -0.21449889
C       -3.36932437       0.36199800      -0.13571223
C        2.51064852      -0.55410800      -1.26231867
O        3.11763578      -1.41340200      -2.13222307
C        4.33278814      -1.95565100      -1.54353971
H        5.12215198      -1.74082600      -2.10178926
H        4.26845523      -2.93856200      -1.44158742
C        4.42292902      -1.28331100      -0.20822640
C        5.37425077      -1.41171800       0.81932391
H        6.11035042      -2.00660300       0.73611081
C        5.20296330      -0.64527500       1.94897322
H        5.82986614      -0.71939000       2.65800459
C        4.12610902       0.24249300       2.08279344
H        4.04075516       0.76631700       2.87066270
C        3.18549636       0.36186100       1.07198316
H        2.45559408       0.96609000       1.14808341
C        3.34686664      -0.43267100      -0.05729646
C       -5.38135503       1.33274100       0.78216764
H       -6.08369344       1.97228000       0.74691937
C       -5.28560330       0.42760200       1.83875399
H       -5.93398644       0.44957700       2.53215224
C       -4.24917017      -0.51471300       1.89500498
H       -4.21324158      -1.13145200       2.61678197
C       -3.27952725      -0.55659400       0.91237684
H       -2.57244767      -1.19057500       0.94772168
