41
Properties=species:S:1:pos:R:3 pbc="F F F"
N       -0.86169039      -2.29997500      -1.30910627
N       -1.32084818       0.00000000      -1.58254317
C        1.33635029       1.40511100      -2.16048211
C       -0.01398138       2.07895500      -2.02447206
H       -0.01309519       2.89696200      -2.58189847
H       -0.12989709       2.36014400      -1.08262236
C       -1.20247277       1.23080000      -2.42125146
H       -2.03010819       1.76695600      -2.33002357
H       -1.11227420       0.96971300      -3.37151540
C       -2.75393570      -0.21141200      -1.25210655
H       -3.27520773      -0.28967100      -2.09004974
H       -3.09697751       0.57455900      -0.75253186
C       -2.95785885      -1.46077900      -0.41955322
H       -2.58110198      -1.32363200       0.48632593
H       -3.92580265      -1.64631700      -0.32786979
C       -2.27634012      -2.62681500      -1.08118987
H       -2.34668780      -3.42804400      -0.50310011
H       -2.71776341      -2.82742900      -1.94459533
C       -0.77199914      -1.20626800      -2.26727199
H       -1.32033239      -1.41720500      -3.07747416
N        1.40381751      -2.11003600      -2.96156480
N        1.32084818      -0.00000000      -1.62481822
C       -0.15694686      -3.49621200      -1.78035108
H       -0.55999926      -3.80615100      -2.63051498
H       -0.24952869      -4.22163900      -1.11355557
C        1.29316691      -3.18970900      -1.99304868
H        1.71071074      -2.92012300      -1.13672805
H        1.76298796      -3.99509100      -2.32841173
C        2.75349733      -1.82817600      -3.45462209
H        3.29011519      -2.65889100      -3.41417926
C        3.47873356      -0.72762400      -2.65825020
H        4.39812424      -1.02374400      -2.44482749
H        3.53953855       0.09374000      -3.20808361
C        2.72943987      -0.42303400      -1.36948685
H        2.72713470      -1.23052400      -0.79605788
H        3.20118574       0.29633900      -0.87978242
C        0.67251269      -0.91862400      -2.67549492
H        0.63108066      -0.39505600      -3.52718175
H        2.01468041       1.93287800      -1.66954828
H        2.69652195      -1.55190400      -4.40380516
H        1.59624464       1.38616700      -3.11487097
