30
Properties=species:S:1:pos:R:3 pbc="F F F"
N       -1.35880632      -0.00000000      -1.50098547
N        1.35880632       0.00000000      -2.13397105
C       -3.19637331       0.42826100      -3.52622882
H       -3.81614231       0.61853400      -4.21727865
C       -1.86234113       0.28929300      -3.80945423
H       -1.56428386       0.31621000      -4.71135620
C       -0.95124357       0.11256500      -2.79056651
C        0.47920518       0.02971700      -3.05752113
H        0.77147818      -0.00481800      -3.96023733
C        2.75605459      -0.03104400      -2.57921752
H        2.76749325      -0.13543600      -3.57369365
C        3.38541977       1.34555400      -2.22539468
C        3.01552057       2.39022200      -3.17035327
H        2.47026001       2.19934400      -3.92442597
C        3.49138223       3.68097100      -2.93364232
H        3.32945195       4.40487500      -3.52884878
C        4.17145091       3.81989600      -1.82406570
H        4.43858551       4.71520300      -1.65138040
C        4.55551353       2.97159200      -0.90253524
H        5.08909948       3.22452800      -0.15715162
C        4.07148146       1.50291700      -1.13652234
H        4.26339784       0.79148200      -0.53652300
C        3.48548950      -1.19276500      -1.97155926
H        3.39372035      -1.16222300      -0.99651300
H        4.43449422      -1.14493000      -2.21115746
H        3.10640544      -2.03119900      -2.31084755
C       -2.66059735       0.06152600      -1.24721610
H       -2.96168408      -0.05086900      -0.35298952
C       -3.60541793       0.28785800      -2.26106511
H       -4.52878107       0.34057400      -2.04973348
