56
Properties=species:S:1:pos:R:3 pbc="F F F"
S        2.52405120       3.31254000      -2.32225308
N        1.35806590      -0.00000000      -1.46632147
C        0.67123044       0.31969000      -2.78791308
H        0.44930552       1.27374000      -2.76215502
C       -0.64515585      -0.42897000      -2.76347384
H       -0.47948277      -1.39324000      -2.72815473
C       -1.45693263      -0.09723000      -3.99233545
H       -1.69060840       0.84356000      -3.98182737
H       -2.27843399      -0.61200000      -3.98738559
C        1.49406931       0.10836000      -4.02160777
H        1.81581178      -0.80616000      -4.04592263
H        2.26178596       0.69953000      -4.00491779
C        0.63674446       0.39646000      -5.29343554
C       -0.66260740      -0.41301000      -5.26580907
H       -1.19876963      -0.19528000      -6.04424463
H       -0.45929394      -1.36040000      -5.29442774
C       -2.47003860      -2.17899000      -1.01219587
C       -2.63250362      -0.72245000      -1.27560515
H       -3.21689947      -0.60940000      -2.04103442
H       -3.06703676      -0.31496000      -0.51185305
C        2.65264238       0.70662000      -1.24590664
H        3.22921665       0.55201000      -2.00937067
H        3.08713432       0.33099000      -0.46404752
N       -1.35806590       0.00000000      -1.54048387
H       -1.41360687       0.89788000      -1.69327060
H        1.86012884      -0.65734000      -1.78636782
C        2.48799589       2.21475000      -1.04533022
C        2.35226508       4.63689000      -1.28931948
C        2.23728523       4.24631000       0.01658711
H        2.06785648       4.82133000       0.72725222
C        2.41898965       2.81287000       0.13951214
H        2.47828937       2.36379000       0.95135479
S       -2.51809304      -3.35935000      -2.30179810
C       -2.30878612      -2.88786000       0.16984223
H       -2.20989018      -2.46619000       0.99335047
C       -2.30694686      -4.69850000      -1.21099585
C       -2.26638731      -6.05627000      -1.71862777
C       -2.52827886      -7.28102000      -0.71681455
H       -2.63198645      -7.32745000       0.20620485
C       -2.30896942      -4.22413000       0.04007980
H       -2.30889586      -4.78947000       0.78017275
S       -1.77644647      -6.51592000      -3.23119073
C       -2.07793375      -8.09386000      -2.95860885
C       -2.55130079      -8.40004000      -1.86964882
H       -2.90875785      -9.24509000      -1.71829950
C        2.35296622       6.03285000      -1.74237348
S        1.77817738       6.45193000      -3.26858547
C        2.76477084       7.23265000      -0.93091884
C        2.06638622       8.05886000      -3.12573182
C        2.49180943       8.35837000      -1.84603772
H        2.60368752       9.23953000      -1.57150740
H        0.43021049       1.34214000      -5.33709254
H        1.14678757       0.16300000      -6.08580051
H        3.10857540       7.25809000      -0.06686970
H        1.95975511       8.68031000      -3.80944405
H       -1.90018982      -8.73816000      -3.60489207
