22
Properties=species:S:1:pos:R:3 pbc="F F F"
C       -1.39377392       0.05120100      -2.59418791
O       -2.41725954      -0.07253400      -3.29642033
O       -1.43483376      -0.00000000      -1.33059037
N        1.43483376       0.00000000      -1.36947999
H        2.10383547      -0.51850300      -1.06422548
H        1.75679643       0.83812400      -1.42774314
C        1.10913193      -0.44729300      -2.72816325
H        0.83278024      -1.38616500      -2.66894529
C       -0.05609737       0.33219200      -3.27935314
H        0.13940008       1.27869300      -3.19985021
H       -0.14407442       0.12956100      -4.22510690
C        4.49908625      -0.38316800      -5.33817958
C        4.19814398       0.77452100      -4.65210409
H        4.71608018       1.54055700      -4.75187854
C        3.09313846       0.75638700      -3.80681330
H        2.86586341       1.52520300      -3.33484807
C        2.32476091      -0.38829400      -3.65640521
C        3.76751175      -1.51723800      -5.22463717
F        5.57207026      -0.37185000      -6.17922317
C        2.66680002      -1.52416600      -4.37422838
H        2.15644834      -2.29697500      -4.28655987
H        3.99748372      -2.27849200      -5.70667405
