55
Properties=species:S:1:pos:R:3 pbc="F F F"
P       -0.01097748      -0.15978000      -2.77186571
O       -0.03075566      -1.33229000      -3.66724860
N       -1.18821954       0.00000000      -1.61608804
N       -2.82019917      -1.65327000      -2.05183213
N       -3.44851412       0.39558000      -1.20539410
N        1.18821954       0.00000000      -1.61377731
N        3.23998441      -0.57429000      -2.62704650
C       -0.02555259       1.36202000      -3.80621794
C        1.11963763       1.23675000      -4.82533133
H        1.97733403       1.19677000      -4.35151022
H        0.99854097       0.41931000      -5.35154485
H        1.11265151       2.01418000      -5.42158774
C        0.13912139       2.64846000      -3.01178305
H        1.05032277       2.69732000      -2.65418245
H       -0.02330712       3.41708000      -3.59694903
H       -0.50248471       2.65976000      -2.27153419
C       -1.35489869       1.37028000      -4.56873014
H       -1.50385976       0.49088000      -4.97505332
H       -2.08623576       1.57276000      -3.94894645
H       -1.32370098       2.05263000      -5.27190975
C       -2.46939611      -0.41940000      -1.64728308
C       -4.11319988      -1.93357000      -2.69139266
H       -3.97150578      -2.49159000      -3.48463285
H       -4.69558776      -2.40624000      -2.05887352
H       -4.53548788      -1.09069000      -2.95746517
C       -1.95113338      -2.80473000      -1.91560895
H       -1.71102300      -3.13978000      -2.80325809
H       -1.13937184      -2.54509000      -1.43252156
C       -3.26212992       1.84426000      -1.18336151
H       -4.11127965       2.28651000      -1.39435199
H       -2.96399716       2.12188000      -0.29151637
H       -2.58704030       2.09733000      -1.84728780
C       -4.57499460      -0.10515000      -0.40874048
H       -4.59502033       0.35676000       0.45462730
H       -5.41307333       0.06048000      -0.88808690
H       -4.46827658      -1.06779000      -0.26148251
C        2.52105968       0.10625000      -1.71036306
C        2.84549850      -1.88551000      -3.11936159
H        2.49636607      -1.80066000      -4.03064518
H        3.62335858      -2.48116000      -3.11991187
H        2.14998737      -2.25726000      -2.53654287
C        4.43105369      -0.00562000      -3.25102449
H        5.22527909      -0.48395000      -2.93498856
H        4.36257285      -0.09272000      -4.22456378
H        4.50293990       0.94233000      -3.01265883
N        3.18020223       0.93182000      -0.87774472
C        2.50751485       1.96440000      -0.10613636
H        2.31126685       1.62586000       0.79251911
H        3.08704279       2.75248000      -0.03959398
H        1.67020848       2.21122000      -0.55224309
C        4.50882718       0.59339000      -0.35194289
H        5.17348476       1.21520000      -0.71658585
H        4.50003268       0.65996000       0.62604694
H        4.74073817      -0.32231000      -0.61442799
H       -2.41860278      -3.50728000      -1.41480274
