18
Properties=species:S:1:pos:R:3 pbc="F F F"
N        1.32839341       0.00000000      -1.53198076
C        0.60318441       0.60230600      -2.68852279
C        1.19748493       0.29732800      -4.06231315
C        2.56581179       0.74954200      -1.22090817
H        0.65547193       1.54527900      -2.57990516
H        0.67414239       0.71919800      -4.73379493
H        2.08860770       0.62641900      -4.10232264
H        1.20020527      -0.64177300      -4.20513820
H        2.96911238       0.38697900      -0.44133567
H        3.16994764       0.67978700      -1.95119245
O       -1.32839341      -0.00000000      -1.41668030
O       -1.61208883       0.26445100      -3.57496198
C       -0.88612548       0.24303800      -2.58405257
C        1.66808091      -1.42700400      -1.76406398
H        0.87692260      -1.91205800      -1.96302051
H        2.27370101      -1.49389500      -2.49251638
H        2.07284013      -1.78749000      -0.98281005
H        2.35343155       1.66381000      -1.07279299
