23
Properties=species:S:1:pos:R:3 pbc="F F F"
O       -1.30876492       0.00000000      -1.46467772
O        1.30876492      -0.00000000      -1.42168094
O        0.27506338       2.59778100      -2.52392878
C       -0.79548938       0.12686500      -2.62105579
C        0.72039911       0.24389100      -2.68715366
C        1.06194954       1.63360200      -3.25253383
H        1.05394087      -0.43078300      -3.31404578
O       -1.49184638       0.17358000      -3.66935559
O        2.59833354       3.45479200      -5.11808198
O        4.32319762       5.28955600      -3.65282693
C        2.54725768       1.99706300      -3.15931110
C        2.85610284       3.39377100      -3.70589644
C        4.19688092       3.87722900      -3.36443727
H        3.06540661       1.33821100      -3.66806271
H        2.22178651       4.00634800      -3.27904161
H        4.36315479       3.72417700      -2.42185988
H        4.85700172       3.38261300      -3.87224654
H        2.75304288       2.72324400      -5.45489444
H        4.20209507       5.72107100      -2.96672328
O        2.97967627       1.96664800      -1.78891510
H        2.52764972       1.42386700      -1.37183881
H        0.17076987       3.26911600      -2.98382172
H        0.79510073       1.66105800      -4.19462591
