70
Properties=species:S:1:pos:R:3 pbc="F F F"
O       -3.13111916      -1.02487000      -2.43177670
N        1.57740212      -0.00000000      -1.25311411
N       -1.57740212       0.00000000      -1.19624267
C       -0.07457584      -0.11762000      -3.97115330
C       -0.97981488       0.24500000      -4.99666584
C       -1.08075035       1.57947000      -5.35903586
H       -1.69166635       1.82294000      -6.01649221
C       -0.31195023       2.54407000      -4.78062111
H       -0.40922651       3.43164000      -5.03690580
C        0.71936236       0.88244000      -3.40179032
C        0.00941656      -1.53259000      -3.49758239
C        0.88896428      -3.73943000      -3.52027181
C       -0.01569093      -4.14712000      -2.56996685
H       -0.01531337      -5.03036000      -2.27621514
C       -0.92210862      -3.25138000      -2.05446927
H       -1.52938306      -3.51557000      -1.40259473
C       -0.91638570      -1.93739000      -2.52423927
C       -1.83133162      -0.79902000      -5.68967155
H       -2.37976279      -0.37642000      -6.35288035
H       -2.39108629      -1.23601000      -5.04299992
H       -1.26230746      -1.44799000      -6.11109896
C       -1.87733065      -0.95064000      -1.99833341
C       -3.86308315       0.03412000      -1.72565261
H       -4.47104500      -0.34520000      -1.07175806
H       -4.37100138       0.57772000      -2.34807009
C       -2.79276483       0.85151000      -1.05031230
H       -3.00926810       0.95740000      -0.10064003
C       -2.55203387       2.23430000      -1.68361009
H       -1.74957848       2.62587000      -1.30403754
H       -2.41132644       2.12896000      -2.63886070
C       -3.70144472       3.14522000      -1.45340830
C       -4.69609986       3.34023000      -2.40251207
H       -4.62496003       2.93797000      -3.23775569
C       -5.79917140       4.13630000      -2.10528643
C       -5.91068495       4.76069000      -0.92135721
H       -6.65989620       5.27914000      -0.73115056
C       -4.92063821       4.63018000      -0.00590531
H       -4.97936086       5.08727000       0.80069751
C       -3.82669073       3.82772000      -0.25266193
H       -3.16438210       3.74394000       0.39450005
O        3.00668504       0.75268000      -2.78461575
C        1.73351451       0.51754000      -2.41089582
C        3.83333059       0.45348000      -1.63367687
H        4.11319643       1.26826000      -1.18796070
H        4.62042937      -0.04813000      -1.89562934
C        2.94344083      -0.36952000      -0.73699467
H        3.04481918      -0.08981000       0.19618195
C        3.12570902      -1.88745000      -0.86516428
H        3.21114068      -2.12068000      -1.80241584
C        4.34583409      -2.38106000      -0.11624710
C        5.38706652      -2.98989000      -0.76552141
H        5.34885787      -3.08956000      -1.69036341
C        6.48381628      -3.45889000      -0.09046681
H        7.19081630      -3.84383000      -0.55621633
C        6.53218585      -3.35800000       1.25650708
C        5.53144645      -2.75370000       1.92451183
C        4.46365924      -2.24797000       1.23573000
H        3.79711905      -1.79968000       1.70353814
C        0.62163148       2.19560000      -3.80514742
H        1.17249701       2.84437000      -3.43110480
C        0.92946805      -2.44238000      -4.00492242
C        1.89721972      -2.03812000      -5.05802290
H        2.41055303      -2.80012000      -5.33192082
H        2.48584069      -1.36378000      -4.70937438
H        1.41951679      -1.68534000      -5.81342228
H       -6.47238111       4.23824000      -2.73997754
H        2.33735320      -2.33257000      -0.51756181
H        1.49976926      -4.35843000      -3.85060534
H        7.25769860      -3.70531000       1.72285687
H        5.56566833      -2.68094000       2.85026717
