46
Properties=species:S:1:pos:R:3 pbc="F F F"
N       -0.39954129       2.78273500      -0.50658144
N       -1.39392263      -0.00000000      -1.46913547
C        0.00680893       1.68532600      -2.63838076
C        0.10599954       2.90542900      -1.73817827
C       -0.23293563       3.81806600       0.30943220
C       -1.28261350       0.90257300      -2.45145398
C       -2.33951524       1.16801400      -3.30921447
C       -3.51319834       0.45363100      -3.18463249
C       -3.58905669      -0.54740300      -2.24802013
C       -2.52109987      -0.74272900      -1.39634539
H       -2.25725023       1.82414800      -3.96346478
H       -4.24246524       0.64715700      -3.72753694
H       -4.34565448      -1.08478800      -2.18842522
H       -2.57965094      -1.40900100      -0.75030163
O       -0.76620660       3.79455000       1.53486625
C       -1.65355095       2.73323100       1.82836062
H       -1.19327375       1.89660200       1.73479987
H       -1.97361082       2.82386100       2.72855715
C        0.96710915       5.06146600      -1.30928187
C        0.49071498       4.96972300      -0.05053714
H        0.63728172       5.65273600       0.56377675
C        0.76108728       4.02632200      -2.18901498
H        1.05704855       4.08256100      -3.06930311
N        1.39392263       0.00000000      -1.48158797
C        3.50571312       0.41014500      -3.21933842
C        2.33253667       1.10585200      -3.37982080
C        1.28528066       0.87382700      -2.49557718
H        4.22921863       0.57987400      -3.77739420
H        2.24098753       1.72252400      -4.06942787
C        2.54825478      -1.81510800      -0.33704181
C        3.71699359      -2.08192300       0.39193992
C        3.72683683      -3.09642200       1.33174859
C        2.52542151      -0.75339500      -1.36510447
C        3.60072739      -0.54153900      -2.22809702
H        4.48341245      -1.57750300       0.24151698
H        4.50256210      -3.26815200       1.81595942
H        4.38026467      -1.03939400      -2.13299857
C        2.60439955      -3.85295000       1.55846068
C        1.45436998      -3.61000600       0.84502179
C        1.42545572      -2.60194600      -0.09811499
H        2.62179225      -4.53121500       2.19581306
H        0.69581698      -4.12441300       0.99927619
H        0.64514179      -2.44654700      -0.58088587
H       -2.39660182       2.76044200       1.22069203
H        1.43120960       5.82085200      -1.58020460
H       -0.00637161       2.02067900      -3.55898886
