23
Properties=species:S:1:pos:R:3 pbc="F F F"
O       -1.30998248      -0.00000000      -1.44048997
O       -1.59428919      -0.48295200      -3.57034993
N        1.30998248      -0.00000000      -1.53742486
C       -0.87773969      -0.36364500      -2.59651782
C        0.61550826      -0.67390600      -2.68927107
H        2.16097812      -0.21317800      -1.44476629
H        1.32598104       0.77407200      -1.80184333
C        0.83877887      -2.17526700      -2.69806148
C        0.48774547      -2.87715500      -1.39214292
H        0.27394053      -2.66990700      -3.50784171
H        1.79053495      -2.20256900      -2.90791992
C        1.46782671      -3.04302100      -0.44359509
H        2.29887040      -2.71721800      -0.55632577
O       -0.38279282      -4.72003400       2.24024675
C        1.18222068      -3.66700300       0.78068621
C       -0.10722512      -4.09643800       1.05680277
C       -1.09033682      -3.91536900       0.09201969
H       -1.40392601      -4.85590200       2.42455273
H       -1.95496688      -4.44327900       0.18652671
I        2.74453840      -3.90335300       2.13537379
C       -0.78907027      -3.30746200      -1.12698600
H       -1.48012492      -3.08331100      -1.82567113
H        0.98448017      -0.29662200      -3.50085758
