16
Properties=species:S:1:pos:R:3 pbc="F F F"
O       -1.32264470      -0.00000000      -1.42608878
O       -1.55404856      -0.48056100      -3.57384961
N        1.32264470      -0.00000000      -1.48966044
H        1.67316284       0.77189700      -1.65516431
H        2.01940961      -0.59681700      -1.27760245
C       -0.86023040      -0.32669300      -2.57060723
C        0.64539038      -0.59962100      -2.65831968
H        0.76365068      -1.57019200      -2.58828010
C        1.23230449      -0.17727900      -4.00009215
H        0.68325761      -0.55421600      -4.71946620
C        2.66000569      -0.63744600      -4.18158669
H        2.99453082      -0.31733400      -5.02352306
H        2.69088382      -1.59680800      -4.17005493
H        3.20132461      -0.29041700      -3.46923060
O        1.22937152       1.24657500      -4.11445074
H        0.37357170       1.51954100      -4.17023007
