61
Properties=species:S:1:pos:R:3 pbc="F F F"
N       -1.39397294      -0.00000000      -1.50869478
N        1.39397294       0.00000000      -1.46089960
H        1.80439652       0.73576000      -1.46323812
C       -0.63669322       0.58132000      -2.68278174
H       -0.49118610       1.52719000      -2.46791368
C       -1.35694618       0.56421000      -4.03007353
H       -1.46050837      -0.34989000      -4.33647238
H       -2.23995485       0.95433000      -3.93549016
C       -0.55351017       1.35692000      -5.03910505
H       -1.01161472       1.35306000      -5.89353926
H       -0.47538732       2.27686000      -4.74176442
C        0.82313013       0.76101000      -5.20202256
H        1.33329366       1.29499000      -5.83099513
H        0.74530999      -0.13600000      -5.56295035
C        1.56113366       0.70696000      -3.86561807
H        1.73218234       1.61186000      -3.55819845
H        2.41684629       0.26827000      -3.99013822
C        0.75868850      -0.04374000      -2.79963866
H        0.66446613      -0.97956000      -3.07471831
C       -2.08071399      -1.30565000      -1.76831536
H       -2.75613199      -1.15405000      -2.44679582
H       -2.54502338      -1.56106000      -0.95509682
C       -1.24471466      -2.48366000      -2.20781918
C       -0.37811895      -3.12698000      -1.33217628
H       -0.28417195      -2.81721000      -0.46179130
C        0.33935560      -4.22406000      -1.75479296
H        0.94501668      -4.63005000      -1.17765613
C        0.16753525      -4.71955000      -3.02185206
H        0.65694312      -5.45947000      -3.30071104
C       -0.72486484      -4.12676000      -3.87743177
H       -0.85973990      -4.47709000      -4.72805175
C       -1.41602923      -3.01376000      -3.47308958
H       -2.01264009      -2.60918000      -4.06028074
C        2.41901287      -1.04991000      -1.15575022
H        2.74906487      -0.90062000      -0.25577716
H        1.98030196      -1.91526000      -1.16169057
C        3.58898247      -1.11168000      -2.07857225
C        4.63870884      -0.22461000      -1.97979998
H        4.63634721       0.42221000      -1.31125278
C        5.70399016      -0.28801000      -2.87442593
C        5.70067737      -1.23315000      -3.86235167
H        6.39832047      -1.26013000      -4.47540893
C        4.69219503      -2.12891000      -3.95397102
H        4.71206885      -2.79108000      -4.60628071
C        3.65720777      -2.05230000      -3.09031812
H        2.95912806      -2.66092000      -3.17944211
C       -2.54247447       0.92694000      -1.10495931
H       -3.20296196       0.91298000      -1.81414579
H       -2.96203586       0.55810000      -0.31257807
C       -2.19413833       2.35004000      -0.82572968
C       -1.77974064       2.76193000       0.42852853
H       -1.65586161       2.12980000       1.09895828
C       -1.55002253       4.08209000       0.70000761
H       -1.24525417       4.33091000       1.54316128
C       -1.75781032       5.03481000      -0.23908756
C       -2.17852674       4.64906000      -1.50544298
H       -2.31469591       5.29282000      -2.16395328
C       -2.39426795       3.32783000      -1.78950732
H       -2.67997030       3.08303000      -2.64053563
H        6.41231720       0.30973000      -2.80182912
H       -1.62140923       5.93295000      -0.03967407
