37
Properties=species:S:1:pos:R:3 pbc="F F F"
O       -1.41968494      -0.00000000      -1.22985492
N        1.41968494       0.00000000      -1.40100302
C       -0.14361317      -0.01127400      -4.67784132
H        0.69045654      -0.06656100      -5.15076192
C       -0.14275651      -0.02222100      -3.28226993
C       -1.37375010       0.05042200      -2.54590134
C       -2.55096735       0.19294800      -3.27884737
H       -3.38154448       0.26686300      -2.80241275
C       -3.76823627       0.41804900      -5.43695446
H       -4.60476207       0.49905600      -4.97408423
C       -3.73218073       0.48207300      -6.80018473
H       -4.55035665       0.61355900      -7.28482507
C       -2.53186217       0.35066000      -7.50564503
H       -2.52936470       0.40483200      -8.46503535
C       -1.36417808       0.15517000      -6.82985527
H       -0.54316219       0.05082300      -7.31670712
C       -1.34640648       0.10661500      -5.40881411
C       -2.56753908       0.23188700      -4.68332739
C        1.16324218      -0.00676800      -2.65995549
H        1.91963826       0.00532900      -3.24974168
C        2.86043385       0.11894400      -1.01424290
H        3.34763747       0.38620200      -1.79785629
C        3.01878755       1.22751400       0.00541872
H        2.54229023       2.01060600      -0.27964823
H        3.94823933       1.43973300       0.11610588
H        2.67283059       0.93099400       0.84901681
C        3.40836404      -1.24625400      -0.59022772
C        4.27215327      -1.38937900       0.47270653
H        4.48538139      -0.62697700       1.01222938
C        4.83665680      -2.61561500       0.77191113
H        5.42451372      -2.69659700       1.52601507
C        4.55398982      -3.71053500       0.02708152
H        4.96113202      -4.55760000       0.22178643
C        3.69822836      -3.57479300      -1.03188305
C        3.13863034      -2.35659800      -1.33261357
H        2.56067438      -2.27754100      -2.09541920
H        3.46998516      -4.34584300      -1.55695001
