25
Properties=species:S:1:pos:R:3 pbc="F F F"
N        1.34566632      -0.00000000      -1.57035658
C        1.98862262      -1.33744500      -1.52912139
H        2.37812518      -1.45993100      -0.63782557
C        3.06802390      -1.61755300      -2.55613593
H        3.79321749      -0.98265200      -2.44430093
C        2.38425318       1.06344700      -1.42677836
H        3.03340450       0.78086600      -0.74896945
H        2.86384768       1.15431700      -2.27709455
C       -0.87581726      -0.37615500      -2.54952900
H       -0.79978282      -1.36314700      -2.56190673
C        0.50026938       0.19417600      -2.76770455
H        0.91860182      -0.24582500      -3.53697201
C       -1.83312012       0.02228700      -3.63101871
H       -1.97068111       0.98266900      -3.60221251
H       -2.68045256      -0.42977500      -3.49577231
C        1.83933137       2.38975600      -1.04256811
H        1.23665453       2.70402400      -1.73315184
H        2.56866814       3.02056700      -0.93846204
H        1.35902173       2.31152900      -0.20325211
O       -1.34566632       0.00000000      -1.29391803
H       -1.46692985      -0.22636100      -4.49368566
H        2.69729049      -1.53022600      -3.44827232
H        3.40588582      -2.51835800      -2.43316677
H        0.42993145       1.15166200      -2.96581535
H        1.28726941      -2.01448200      -1.63427639
