43
Properties=species:S:1:pos:R:3 pbc="F F F"
C        0.03586947      -1.43885200      -3.25089753
C       -2.78795826      -2.48004300      -3.97187285
C        3.03301137       1.27861100      -3.63810005
C        2.06768468      -0.03604600      -5.35013664
C        2.95774630      -2.53737200      -1.33724826
C        3.24495477      -2.62410300      -3.62318206
H       -0.11547720      -2.28946500      -2.72953128
H        0.12591101      -1.77920900      -4.12935576
H       -2.68599347      -3.06019600      -3.18404336
H       -3.70400131      -2.59093800      -4.37074672
H       -2.09963420      -2.69309000      -4.66136595
H        3.95863118       0.96957100      -3.88188516
H        2.80679013       2.09906300      -4.13873489
H        2.99572424       1.44965500      -2.65176780
H        1.17176940       0.16696900      -5.70694976
H        2.74466401       0.53487000      -5.82526820
H        2.29001086      -0.98486700      -5.50361892
H        2.67290809      -3.52815600      -1.36518920
H        3.92782660      -2.51465800      -1.11475638
H        2.43290270      -2.10341300      -0.60563545
H        4.18540343      -2.68932900      -3.58053545
H        2.85219822      -3.63098300      -3.52854871
H        2.87731339      -2.30434100      -4.48059934
N       -2.63319716      -1.15965800      -3.59669786
N        2.12382252       0.23933800      -3.94748903
N        2.68449119      -1.92700300      -2.60963378
O       -1.47482526       0.00000000      -1.54269163
O        1.47482526       0.00000000      -1.47223954
P       -1.36162586      -0.34471500      -2.98390077
P        1.60531740      -0.75412500      -2.73849176
C       -3.92446419      -0.45169400      -3.63613800
H       -3.82804410       0.35948200      -4.23056330
H       -4.62271672      -1.05495600      -4.04586612
H       -4.19706689      -0.17964200      -2.73590944
C       -0.81011801       2.28251200      -3.30475854
C       -1.41204033       1.00950600      -5.32213422
H        0.02988887       2.56501600      -3.76656907
H       -1.52206981       2.95417600      -3.44430444
H       -0.63144199       2.15802800      -2.32953428
H       -2.19685233       1.52818400      -5.57743683
H       -0.57868702       1.39414800      -5.74955416
H       -1.50017790       0.05198900      -5.62268869
N       -1.22944544       1.01148900      -3.86918127
