53
Properties=species:S:1:pos:R:3 pbc="F F F"
S       -1.07373128      -0.34501000      -2.94483380
P        1.52523813      -0.00000000      -1.59708645
N        0.57033130       0.05606000      -3.02705831
C        0.99957682       0.64164000      -4.31431530
H        0.97569804      -0.06656000      -5.00714857
H        1.93870862       0.94172000      -4.22726498
O       -1.52523813       0.00000000      -1.55303056
C        2.55242615       1.49776000      -1.65369854
C        1.97220020       2.71045000      -1.27931960
H        1.05144306       2.74176000      -1.04918426
C        2.73349624       3.87485000      -1.24149668
H        2.32872596       4.70025000      -0.99991630
C        4.08446415       3.83139000      -1.55652890
H        4.60503837       4.62647000      -1.52511839
C        4.67608198       2.62685000      -1.91713505
H        5.60203970       2.60013000      -2.12933185
C        3.91784783       1.45791000      -1.96913725
H        4.32495381       0.63645000      -2.21817555
C        2.72061939      -1.33779000      -1.84030494
C        3.29065717      -1.90270000      -0.69126939
H        3.01709646      -1.60210000       0.16882523
C        4.25392753      -2.89872000      -0.80103207
H        4.64483206      -3.27094000      -0.01964866
C        4.64275629      -3.34620000      -2.05326419
H        5.30049732      -4.02612000      -2.13012017
C        4.06902926      -2.80076000      -3.19801712
H        4.32959193      -3.12002000      -4.05357404
C        3.11627443      -1.79127000      -3.09839803
H        2.73746009      -1.41442000      -3.88340130
C        0.15870005       1.81154000      -4.78797162
C       -0.48333132       2.68487000      -3.91665400
H       -0.41143115       2.55974000      -2.97700183
C       -1.23761606       3.75242000      -4.42685831
H       -1.69715051       4.33330000      -3.83154118
C       -1.31735378       3.96368000      -5.79560906
H       -1.82769699       4.69093000      -6.13439224
C       -0.65507666       3.11811000      -6.66478603
H       -0.69092642       3.27370000      -7.60207452
C        0.06730764       2.03451000      -6.16277617
H        0.50142735       1.44096000      -6.76452591
C       -1.16640062      -2.18043000      -3.04307905
C       -0.50732856      -2.58286000      -4.35647288
H       -0.79244687      -3.48801000      -4.60275446
C       -2.68951916      -2.41832000      -3.10449933
H       -3.10484529      -2.09493000      -2.27752822
H       -2.86632211      -3.37673000      -3.20553265
C       -0.55709175      -2.86631000      -1.82974293
H       -0.76908631      -3.82202000      -1.85492318
H       -0.92501333      -2.47186000      -1.01294799
H        0.41569813      -2.74749000      -1.84185914
H       -0.77084481      -1.95483000      -5.06105161
H       -3.06518833      -1.93451000      -3.86979345
H        0.46786461      -2.56480000      -4.25269704
