65
Properties=species:S:1:pos:R:3 pbc="F F F"
C        5.79829057       0.44687000       0.37935673
C        3.55456538       0.41684000      -0.56733903
C        4.93396771       0.14094000      -0.70235927
C        3.92167670       1.30012000       1.65229264
H        3.57387581       1.68742000       2.42521861
C        5.27713393       1.02390000       1.58129180
C        3.08374045       1.01618000       0.60038323
H        2.18045708       1.22708000       0.66902107
C        5.52140018      -0.46164000      -1.87066800
H        4.96904871      -0.72522000      -2.57219784
C        6.84234975      -0.65476000      -1.97260743
H        7.18622339      -1.02173000      -2.75565243
N        1.37030314      -0.00000000      -1.52467594
N       -1.37030314      -0.00000000      -1.52070289
C        0.60469338      -0.33603000      -2.73706374
H        1.16019804      -0.27713000      -3.54238513
C       -0.51252376       0.32317000      -2.87415009
H       -0.34286571       1.27446000      -2.95333374
H       -0.99188100       0.02273000      -3.66301900
C       -6.67440774      -1.62072000       0.89111922
C       -5.54481037      -0.75859000       0.71951264
C       -4.65015428      -0.96659000      -0.36147220
C       -5.30293290       0.27642000       1.65075522
C       -6.90740340      -2.69189000      -0.00205912
C       -3.51875242      -0.10334000      -0.46358423
C       -7.98800124      -3.54735000       0.22972792
H       -8.14690911      -4.24618000      -0.36044633
C       -3.30592632       0.89044000       0.47835089
H       -2.55908235       1.44041000       0.40991335
C       -4.19276820       1.07014000       1.51231266
H       -4.03661632       1.74490000       2.13285490
C        2.62228029       0.10777000      -1.64563359
H        2.98164694      -0.01946000      -2.49451477
C       -4.94633905      -2.03759000      -1.26074987
H       -4.38711590      -2.17446000      -1.99148028
C       -6.00921447      -2.85955000      -1.09010347
H       -6.15573979      -3.54888000      -1.69809495
C       -0.02665591      -1.77736000      -2.56197230
H       -0.59665751      -1.97083000      -3.31106167
H        0.67461160      -2.43155000      -2.51818461
H       -0.54136856      -1.80547000      -1.75297070
C       -2.61090706      -0.26482000      -1.59356230
H       -2.95417643      -0.57278000      -2.40063147
C       -7.54281568      -1.43554000       1.99194764
C       -7.29443909      -0.36332000       2.88594789
H       -7.87618959      -0.22014000       3.59787865
C       -6.24032400       0.44482000       2.72602899
H       -6.11019970       1.14014000       3.33158752
C       -8.59727130      -2.33121000       2.16151480
H       -9.17650922      -2.21771000       2.88027314
C       -8.80409100      -3.38091000       1.28902572
H       -9.50639864      -3.97444000       1.43199413
C        7.19532682       0.21392000       0.27537624
C        7.49804847       1.05356000       2.55148243
H        8.05061250       1.22676000       3.27907715
C        8.06433768       0.53584000       1.36135843
C        6.18771012       1.29804000       2.65151348
H        5.85664561       1.65991000       3.44117179
C        7.74080338      -0.31364000      -0.91152604
C        9.43973772       0.35652000       1.20332217
H       10.01515546       0.56727000       1.90299783
C        9.95316956      -0.12660000       0.02759499
H       10.87185002      -0.22973000      -0.06362963
C        9.12299523      -0.46517000      -1.02536375
H        9.48891578      -0.79684000      -1.81465250
