35
Properties=species:S:1:pos:R:3 pbc="F F F"
C       -0.75796471       0.02780100      -2.58095444
N        0.53657885       0.11155300      -2.67955522
H        0.94580459      -0.06029500      -3.35524387
O       -1.28160283      -0.00000000      -1.43873001
C       -1.62829706      -0.07162600      -3.82085517
C       -1.71977846      -1.56360300      -4.17477376
H       -0.84851237      -1.88963700      -4.41395983
H       -2.31909038      -1.68069500      -4.91508932
H       -2.04712311      -2.05283600      -3.41678583
C       -2.99996217       0.50803900      -3.50318172
H       -3.40560947       0.00264700      -2.79552892
H       -3.55494329       0.46409100      -4.28624524
H       -2.90555427       1.42351800      -3.23024491
C       -1.02439896       0.70577600      -4.98926183
H       -0.89855437       1.62232800      -4.73219813
H       -1.61904750       0.66392100      -5.74216137
H       -0.17869816       0.32069400      -5.22733278
S        2.61037052       0.93425200      -1.49656288
N        1.28160283       0.00000000      -1.47582865
O        3.49596585       0.39444000      -0.51429388
C        2.16386641       2.56592900      -0.97565281
C        2.55691708       3.02440000       0.26077356
H        3.06046615       2.48359700       0.82590582
C        2.19568379       4.30525200       0.65491725
C        1.45685765       5.14643200      -0.15773378
C        1.06899773       4.65625300      -1.38295181
H        0.56426644       5.19730400      -1.94554838
C        1.40998157       3.37941600      -1.80514683
H        1.13369071       3.07239900      -2.63846321
C        1.10203204       6.54930900       0.28756860
H        1.87014671       7.11723700       0.19490908
H        0.38683782       6.88623700      -0.25650038
O        3.06881067       1.03815300      -2.86103106
H        2.45991052       4.60750500       1.49336233
H        0.82500888       6.53216700       1.20631657
