60
Properties=species:S:1:pos:R:3 pbc="F F F"
O       -2.24872228      -0.12355000      -3.51633500
O        2.30924686      -0.00160000      -3.43982826
N       -1.36981364       0.00000000      -1.45077892
N        0.03061971      -0.00607000      -3.38011940
N        1.36981364      -0.00000000      -1.40462281
N       -0.50620737       2.65567000      -5.06837521
N        0.06576596       3.80671000      -5.36012962
N        1.36250010       3.54098000      -5.63928871
C       -1.17087676      -0.03059000      -2.71666181
C        1.22249648       0.00050000      -2.67908809
C       -3.38679750      -0.34080000      -2.61986221
C       -2.84662184      -0.00896000      -1.22462872
C       -3.38489703       1.33078000      -0.68912189
C       -3.04745313       2.52541000      -1.57988645
C       -2.91474068       1.58038000       0.74182447
C        3.44985613      -0.05197000      -2.52296587
C        2.81942052      -0.06077000      -1.11786426
C        3.15014470      -1.27735000      -0.23529380
C        2.72731095      -2.59379000      -0.86875770
C        4.61747907      -1.27596000       0.15543513
C        0.09076644       0.23194000      -4.86289589
C        0.42635696       1.66700000      -5.15211719
C        1.62527770       2.22235000      -5.51960877
C        2.33570549       4.60654000      -5.97516878
H       -4.14037289       0.25685000      -2.85668522
H       -3.08364061      -0.74406000      -0.59030299
H       -4.38313965       1.25656000      -0.66145553
H       -3.42706941       2.38367000      -2.47302288
H       -2.07528608       2.61721000      -1.64936736
H       -3.42582229       3.34109000      -1.19081308
H       -1.93530714       1.59972000       0.76510719
H       -3.24185426       0.86238000       1.32273454
H       -3.26619091       2.44061000       1.05500115
H        4.03183519       0.73971000      -2.64209890
H        3.98558983      -0.87061000      -2.67264456
H        3.09023882       0.77224000      -0.63594744
H        2.62339234      -1.17721000       0.60936725
H        3.19425392      -2.71017000      -1.72144946
H        1.75930532      -2.58510000      -1.02488198
H        4.82189978      -0.45819000       0.65631733
H        5.17031308      -1.31017000      -0.65296736
H        4.80883288      -2.05791000       0.71414815
H        0.77821369      -0.35663000      -5.26552604
H       -0.78439740       0.00736000      -5.27029763
H        2.45313516       1.77918000      -5.65898633
H        2.80256729       4.89245000      -5.15114632
C        1.66702632       5.81350000      -6.61448151
C        1.13313679       8.13615000      -6.46534423
C        0.57468417       8.10906000      -7.68781091
C        0.55072618       6.92696000      -8.43552498
C        1.12473681       5.74828000      -7.87127785
H        0.19165836       8.90045000      -8.04886847
H        0.15894266       6.90911000      -9.30155196
H        1.13158818       4.93258000      -8.35799554
C        1.68202369       7.01951000      -5.92027155
H        2.07799958       7.06255000      -5.05869264
H        1.14202812       8.95095000      -5.97560231
H        3.01315636       4.24322000      -6.59872342
H        2.95443914      -3.33313000      -0.26676956
H       -3.69568569      -1.28004000      -2.66416434
