33
Properties=species:S:1:pos:R:3 pbc="F F F"
Br      -1.38034720       0.83798800      -7.15828424
O       -1.42440197      -0.00000000      -1.21558848
N        1.42440197      -0.00000000      -1.43886513
H        2.11272719      -0.45983900      -1.05590644
C       -1.36633755       0.17495300      -2.52093306
C       -2.46007676       0.72264200      -3.17992473
H       -3.21097275       0.96329000      -2.68631330
C       -2.46394127       0.91490300      -4.53406855
H       -3.21828115       1.25685900      -4.95731269
C       -1.33405623       0.59730600      -5.27089912
C       -0.24670042       0.07927600      -4.65675749
H        0.49989858      -0.14338000      -5.16526131
C       -0.21667146      -0.12992700      -3.28004499
C        0.96005267      -0.76291900      -2.62040228
H        0.72465269      -1.66303800      -2.34431979
H        1.68646074      -0.82945200      -3.26121031
C        1.92520689       1.36614300      -1.73446652
H        1.17345678       1.89926100      -2.06656867
C        3.02288509       1.38948600      -2.79550629
C        4.12583050       0.56739000      -2.68976464
H        4.18159266      -0.04585200      -1.99282612
C        5.13486934       0.65312300      -3.60762736
H        5.86362447       0.07993900      -3.53738907
C        5.09600648       1.55564300      -4.61454123
C        4.03120602       2.39655000      -4.69645040
H        4.01202033       3.04781800      -5.35896588
C        2.98043697       2.29723200      -3.80981488
H        2.24054489       2.85173900      -3.90443217
C        2.42923944       2.01243600      -0.46007694
H        1.72003189       2.03643200       0.18764040
H        2.72097077       2.90715800      -0.64943128
H        3.16347557       1.50358100      -0.11132357
H        5.78364762       1.59935300      -5.23961342
