33
Properties=species:S:1:pos:R:3 pbc="F F F"
O       -1.42902559      -0.00000000      -1.22530150
N        1.42902559       0.00000000      -1.43255481
H        2.02013359      -0.39731700      -0.98652839
C       -1.33112231       0.13768600      -2.54207596
C       -1.21131816       0.50303000      -5.30172659
C       -0.14402513      -0.05902300      -4.64585826
H        0.60932687      -0.31585200      -5.12649543
C       -0.17980379      -0.24765800      -3.27066419
C        0.98107708      -0.87183700      -2.54550684
H        0.71718777      -1.73716800      -2.19345650
H        1.71506357      -1.00999400      -3.16536265
C        2.02145397       1.28862700      -1.90248586
H        1.42895165       1.65319400      -2.59314478
C        2.06398660       2.28860000      -0.75355389
H        1.16809692       2.51685600      -0.49486144
H        2.52855952       3.08046800      -1.03503960
H        2.52364015       1.89796300      -0.00693843
C        3.38112954       1.05752400      -2.53686212
C        3.52582747       1.00797300      -3.90863701
H        2.78479740       1.14478200      -4.45292567
C        4.76157472       0.75537100      -4.48483389
H        4.84342171       0.72064700      -5.41017887
C        5.74215111       0.59794700      -2.35049071
C        4.50652187       0.83934600      -1.76057162
H        4.43454328       0.85485000      -0.83336879
Cl      -1.09943815       0.80791000      -7.02647939
C        5.84703504       0.56109400      -3.70471698
H        6.67346543       0.39960300      -4.09909375
C       -2.40492261       0.68189600      -3.25701665
H       -3.17327789       0.93392700      -2.79915882
C       -2.35197750       0.85359900      -4.62592609
H       -3.08146384       1.20329100      -5.08442021
H        6.49369212       0.46231200      -1.81942600
