26
Properties=species:S:1:pos:R:3 pbc="F F F"
O       -1.39351987       0.00000000      -1.40420890
C       -0.00160850      -1.16713900      -3.01904960
C       -2.49526103      -1.02558900      -3.26829948
C       -1.22827104      -0.29877300      -2.81790515
H       -0.10286392      -1.98972200      -2.33774266
H       -3.18713644      -0.35254100      -3.15736562
H       -2.58418466      -1.73625200      -2.73262604
H       -1.05398275       0.56898500      -3.36930645
H       -1.86086892       0.66142200      -1.36765950
N        1.21852842      -0.42419800      -2.65088479
N        1.39351987      -0.00000000      -1.37897503
C        2.59172081       0.56662400      -1.34049380
C        3.19131814       0.51461400      -2.57701491
C        2.30045950      -0.12235800      -3.38442634
H        2.90427517       0.94764700      -0.58881657
H        3.95099256       0.88106800      -2.76503012
H        2.35958203      -0.39515300      -4.27907975
C        0.08470892      -1.61083800      -4.48559306
C       -1.17634396      -2.34578400      -4.90781408
C       -2.38754300      -1.47705000      -4.72145626
H        0.17013975      -0.87346400      -4.98697075
H        0.86927355      -2.15441500      -4.61007425
H       -1.07526100      -2.54472800      -5.90628288
H       -1.36541850      -3.24085500      -4.35468581
H       -3.18163817      -1.93581500      -4.93400120
H       -2.22781361      -0.63569600      -5.45614833
