48
Properties=species:S:1:pos:R:3 pbc="F F F"
N       -1.35907620       0.00000000      -1.48938608
N        1.35907620      -0.00000000      -1.48938608
H       -1.61417982      -0.84620300      -1.58857266
H        1.61417982       0.84620300      -1.58857266
C       -0.65646591       0.36775200      -2.75217626
H       -0.46805095       1.32800600      -2.72887780
C       -1.46130829       0.07099100      -4.01030661
H       -1.72469779      -0.86361600      -4.01230419
H       -2.26868847       0.60916600      -4.01030661
C        0.65646591      -0.36775200      -2.75217626
H        0.46805095      -1.32800600      -2.72887780
C        1.46130829      -0.07099100      -4.01030661
H        1.72469779       0.86361600      -4.01230419
H        2.26868847      -0.60916600      -4.01030661
C       -0.65496119       0.37077900      -5.26178026
C        0.65496119      -0.37077900      -5.26178026
H       -1.16915722       0.11576300      -6.04395137
H        1.16915722      -0.11576300      -6.04395137
H       -0.48499040       1.32384400      -5.31303772
H        0.48499040      -1.32384400      -5.31303772
C        2.59925947      -0.77264700      -1.21845529
H        3.04742799      -0.38282000      -0.45159516
H        3.19363222      -0.68528100      -1.98065701
C        2.36759574      -2.22940600      -0.95285043
C        2.75899277      -3.18537600      -1.87547982
H        3.10692962      -2.92382000      -2.69759116
C        2.63101069      -4.53981200      -1.57459316
H        2.89223573      -5.18052200      -2.19633659
C        2.12643909      -4.92644700      -0.37104933
H        2.06702020      -5.83064300      -0.16801706
C        1.70960106      -4.00817600       0.53493830
H        1.33973613      -4.28242700       1.34307084
C        1.83736182      -2.65866500       0.24803185
H        1.56158239      -2.02928300       0.87643128
C       -2.59925947       0.77264700      -1.21845529
H       -3.04742799       0.38282000      -0.45159516
H       -3.19363222       0.68528100      -1.98065701
C       -2.36759574       2.22940600      -0.95285043
C       -2.75899277       3.18537600      -1.87547841
H       -3.10692962       2.92382000      -2.69759116
C       -2.63101069       4.53981200      -1.57459316
H       -2.89223573       5.18052200      -2.19633659
C       -2.12643838       4.92644600      -0.37104863
H       -2.06702020       5.83064300      -0.16801706
C       -1.70960106       4.00817600       0.53493830
H       -1.33973613       4.28242700       1.34307084
C       -1.83736182       2.65866500       0.24803185
H       -1.56158239       2.02928300       0.87643128
