58
Properties=species:S:1:pos:R:3 pbc="F F F"
O        4.44825000       0.68144000       0.05211000
N        1.33746000      -0.00000000      -1.51015000
C        0.73921000       0.03652000      -2.72417000
C        1.48413000       0.18577000      -3.88783000
C        2.87919000       0.27727000      -3.76885000
C        3.46107000       0.18915000      -2.54441000
C        2.69813000       0.02744000      -1.42070000
C        3.33202000      -0.18484000      -0.07815000
C        4.11403000       2.04748000       0.21710000
C        3.80919000      -1.60220000       0.20842000
C        2.69618000      -2.60910000      -0.13026000
C        5.05616000      -1.97790000      -0.59051000
H        1.08883000       0.22602000      -4.69110000
H        4.40975000       0.23600000      -2.41589000
H        2.69051000       0.04694000       0.64696000
H        4.90934000       2.56478000       0.35865000
H        3.58674000       2.15794000       1.05858000
H        3.62272000       2.34805000      -0.48109000
H        1.92293000      -2.40018000       0.43854000
H        2.98874000      -3.48466000       0.13113000
H        2.48185000      -2.55243000      -1.00040000
H        4.87292000      -1.94801000      -1.46412000
H        5.33656000      -2.85413000      -0.29265000
H        5.75770000      -1.36130000      -0.33259000
C        4.11040000      -1.73792000       1.70207000
H        4.78758000      -1.12660000       1.99993000
H        4.37643000      -2.62096000       1.94869000
H        3.31137000      -1.53377000       2.24829000
O       -4.44825000      -0.68144000       0.05210000
N       -1.33746000      -0.00000000      -1.51015000
C       -0.73921000      -0.03652000      -2.72417000
C       -1.48413000      -0.18577000      -3.88783000
C       -2.87919000      -0.27728000      -3.76886000
C       -3.46107000      -0.18915000      -2.54441000
C       -2.69813000      -0.02744000      -1.42070000
C       -3.33202000       0.18484000      -0.07816000
C       -4.11403000      -2.04748000       0.21710000
C       -3.80919000       1.60220000       0.20841000
C       -2.69618000       2.60910000      -0.13026000
C       -5.05616000       1.97790000      -0.59052000
H       -1.08883000      -0.22602000      -4.69110000
H       -4.40974000      -0.23600000      -2.41589000
H       -2.69052000      -0.04694000       0.64696000
H       -4.90934000      -2.56478000       0.35865000
H       -3.58674000      -2.15794000       1.05858000
H       -3.62272000      -2.34805000      -0.48110000
H       -1.92293000       2.40018000       0.43854000
H       -2.98874000       3.48466000       0.13113000
H       -2.48185000       2.55243000      -1.00040000
H       -4.87292000       1.94801000      -1.46412000
H       -5.33656000       2.85413000      -0.29265000
H       -5.75770000       1.36130000      -0.33260000
C       -4.11040000       1.73792000       1.70206000
H       -4.78758000       1.12660000       1.99992000
H       -4.37643000       2.62097000       1.94869000
H       -3.31137000       1.53378000       2.24829000
H        3.42815000       0.41045000      -4.48268000
H       -3.42815000      -0.41045000      -4.48268000
