30
Properties=species:S:1:pos:R:3 pbc="F F F"
O        1.33610845      -0.00000000      -1.38059581
O        0.43850992       1.85403700      -2.48041475
C        2.56752101       0.78236400      -5.93316496
C        0.77992181       0.44030600      -2.56377344
C        1.72846944       0.19869300      -3.73888945
C        3.40957338      -0.31841000      -5.92359795
H        3.97190956      -0.48333100      -6.64574355
C        1.73145401       1.04656100      -4.84874374
C        2.57314456      -0.91141100      -3.74472271
H        2.58017988      -1.48678800      -3.01401425
C        3.40903353      -1.17265700      -4.83179058
H        3.96425561      -1.91866500      -4.82348883
C        1.51606844       2.67161100      -2.01164822
H        1.72860460       2.43223100      -1.10682071
H        1.25571165       3.59434200      -2.04609434
N       -1.33610845       0.00000000      -1.49401650
H       -1.75116141       0.78602400      -1.53228844
H       -1.94662953      -0.63364100      -1.35720129
C       -0.60530320      -0.25802800      -2.77269091
C       -0.43864393      -1.77409400      -2.88671878
H       -1.30376279      -2.18773300      -2.94068114
H        0.06501109      -1.98232800      -3.67743252
H        0.02678088      -2.10362200      -2.11462619
C       -1.38699976       0.27926800      -3.97266592
H       -1.49863860       1.22817400      -3.88284211
H       -2.24886233      -0.14171300      -4.00804236
H        1.17381498       1.79020800      -4.86560585
H        2.28681078       2.53544100      -2.56830751
H        2.55914396       1.35042300      -6.66910830
H       -0.90377739       0.08871600      -4.78048729
