76
Properties=species:S:1:pos:R:3 pbc="F F F"
N       -1.41612462      -0.00000000      -1.49098752
N        1.41612462       0.00000000      -1.45820625
C       -0.67229015      -0.29242000      -2.76042680
C        0.69665324       0.40854000      -2.72040115
C       -2.65685781      -0.83524000      -1.40499905
C        2.69817875       0.82312000      -1.35154141
C       -3.52026375      -0.47489000      -0.20716165
C       -3.59700644      -1.38254000       0.87611009
C       -4.35339045      -0.98642000       1.97569307
C       -5.01655873       0.18604000       2.04134272
C       -4.99884343       0.99416000       0.97089843
C       -4.26075419       0.68922000      -0.17699603
C       -2.92034202      -2.71168000       0.86460151
C       -4.27230721       1.64414000      -1.35229546
C       -1.41059912       0.09659000      -4.01676635
C       -1.79885983       1.40570000      -4.25449750
C       -2.36187247       1.76914000      -5.48373504
C       -2.53527082       0.84842000      -6.46057717
C       -2.18782243      -0.46256000      -6.24234607
C       -1.61907553      -0.83482000      -5.01857260
C        1.46633399       0.12804000      -3.99878022
C        1.69673179       1.16605000      -4.85332407
C        2.30942861       0.92973000      -6.08261135
C        2.77630106      -0.29800000      -6.36165099
C        2.56452773      -1.39311000      -5.49124430
C        1.91534192      -1.11639000      -4.30205199
C        3.54625856       0.42905000      -0.16028440
C        4.20455105      -0.83618000      -0.10931801
C        5.00774780      -1.11665000       0.98689036
C        5.16626445      -0.23420000       2.03767599
C        4.55192097       0.98678000       1.92767306
C        3.77247243       1.34335000       0.85259975
C        4.08711118      -1.85840000      -1.20856463
H       -1.84391096       0.89993000      -1.41440706
H        1.79533370      -0.92667000      -1.40240967
H       -0.56401541      -1.28812000      -2.79709163
H        0.59476601       1.40128000      -2.68747546
H       -2.39029211      -1.79839000      -1.33128467
H       -3.19065088      -0.70384000      -2.23800139
H        2.45318852       1.78656000      -1.26198519
H        3.23657889       0.68762000      -2.18152571
H       -4.40459132      -1.57621000       2.71808988
H       -3.10382973      -3.18893000       1.72494672
H       -3.26348940      -3.25889000       0.10159403
H       -1.93083838      -2.58454000       0.76408389
H       -3.34488730       1.97139000      -1.52916800
H       -4.62336529       1.17506000      -2.16269079
H       -1.68129646       2.06173000      -3.57527214
H       -2.62113754       2.66603000      -5.63843838
H       -2.90121888       1.10462000      -7.29804705
H       -2.32677861      -1.11443000      -6.92238241
H       -1.37482342      -1.74151000      -4.86968506
H        1.44458689       2.04725000      -4.60763461
H        2.39107496       1.63467000      -6.71552009
H        3.27074972      -0.43534000      -7.16283060
H        2.85256003      -2.27148000      -5.71273113
H        1.77722782      -1.81835000      -3.67905983
H        5.46034235      -1.95400000       1.02233132
H        4.62385099      -2.66954000      -0.96361066
H        3.12617222      -2.12111000      -1.31383625
H        4.42698293      -1.47511000      -2.06112526
C        6.01165096      -0.61307000       3.26154480
H        6.00818084       0.14652000       3.91174673
H        5.61879639      -1.42602000       3.70067276
H        6.94731546      -0.81066000       2.97771175
C        3.22501906       2.76207000       0.78872301
H        3.49485202       3.25637000       1.61059121
H        3.59446058       3.21930000      -0.01832734
H        2.22781730       2.72660000       0.72861418
C       -5.78704350       0.57615000       3.31791767
H       -6.21364704       1.46813000       3.18392559
H       -5.15354152       0.61489000       4.08753673
H       -4.86440684       2.42536000      -1.13840048
H        4.66937298       1.61706000       2.62420587
H       -5.50140406       1.80083000       0.99161406
H       -6.49310093      -0.10913000       3.49965174
