32
Properties=species:S:1:pos:R:3 pbc="F F F"
N        1.35088113       0.00000000      -1.48911419
H        1.67144738       0.85168000      -1.62615866
H        2.05946886      -0.54573300      -1.27320052
N       -1.35088113      -0.00000000      -1.48205159
H       -1.80157618      -0.80187000      -1.48771233
H       -1.96346427       0.67151000      -1.34031072
C        0.68370353      -0.49486600      -2.71472792
H        0.51505875      -1.47257600      -2.59101367
C       -0.68690599       0.20534300      -2.80174089
H       -0.53625507       1.18502800      -2.93605530
C        1.50759797      -0.33085800      -3.97923385
C        1.95963848       0.94512600      -4.38423330
H        1.76311529       1.71673200      -3.86754392
C        2.69940397       1.04501500      -5.55491083
H        2.97158500       1.90426000      -5.85295525
C        3.04756772      -0.05802200      -6.28946616
H        3.58488401       0.03044700      -7.06835405
C        2.60560951      -1.29614800      -5.88140694
H        2.82306374      -2.06809700      -6.39052302
C        1.84497831      -1.41819300      -4.72962387
H        1.55207088      -2.27968600      -4.45633721
C       -1.51562426      -0.32712800      -3.97454455
C       -1.56520616       0.41646100      -5.15566337
H       -1.08967280       1.23640600      -5.22541537
C       -2.31548278      -0.05300300      -6.23127412
H       -2.33667387       0.44234300      -7.04167073
C       -3.01892185      -1.21516100      -6.13443135
H       -3.55386495      -1.51136400      -6.86193709
C       -2.95128697      -1.95310800      -4.98654694
H       -3.42698155      -2.77298700      -4.92655704
C       -2.18953306      -1.51559900      -3.89987153
H       -2.14026610      -2.04142000      -3.11028146
