52
Properties=species:S:1:pos:R:3 pbc="F F F"
O        2.29032424       0.35907000      -3.35604198
O       -1.36239765       0.00000000      -1.36097160
N        1.36239765       0.00000000      -1.35353769
C        2.14892238      -2.75674000      -0.97840281
H        1.39836129      -2.59235000      -1.50346983
C        2.42444988      -4.05084000      -0.52444861
H        1.85257539      -4.74828000      -0.75149105
C        3.50636225      -4.30123000       0.23753882
H        3.67951181      -5.16747000       0.52988874
C        4.33617976      -3.29563000       0.57354330
H        5.08862833      -3.46721000       1.09283687
C        4.07206525      -2.01311000       0.15084750
H        4.63687125      -1.31994000       0.40835834
C        2.98894003      -1.74146000      -0.64519068
C        2.77765049      -0.33463000      -1.14287444
H        3.15722292       0.29106000      -0.49114431
C        3.41041911      -0.05639000      -2.53118085
H        3.79231983      -0.88493000      -2.88955103
C        4.45972939       1.00431000      -2.50513769
C        5.77465626       0.67023000      -2.62535827
H        6.00955667      -0.21395000      -2.79212928
C        6.76999020       1.63052000      -2.50195855
H        7.66576498       1.39716000      -2.58921841
C        4.10870186       2.33044000      -2.30197600
H        3.21303561       2.57841000      -2.25968323
C        1.19803729       0.35754000      -2.57581199
C       -0.02988821       0.80766000      -3.18736281
C        0.02923078       1.48918000      -4.40560266
H        0.85141880       1.62494000      -4.81826671
C       -1.10017483       1.95266000      -4.99223934
H       -1.05603912       2.41222000      -5.80004125
C       -2.32760618       1.73182000      -4.37588637
H       -3.09495732       2.05179000      -4.79200294
C       -2.46541387       1.06288000      -3.17414294
C       -1.28087104       0.60344000      -2.51785821
C       -3.82624615       0.85613000      -2.53502501
C       -4.97673704       1.40458000      -3.38045740
H       -4.83668818       2.34130000      -3.54091348
H       -5.80482907       1.28047000      -2.91358167
H       -5.00779107       0.93785000      -4.21900135
C       -4.08600141      -0.63745000      -2.33951566
H       -4.16459169      -1.06355000      -3.19766370
H       -4.89963271      -0.75880000      -1.84645670
H       -3.35570386      -1.02746000      -1.85459626
C       -3.89222402       1.56214000      -1.17828509
H       -3.24485750       1.17681000      -0.58554221
H       -3.70230794       2.49593000      -1.29475174
C        6.41599783       2.90737000      -2.25443929
H        7.08150694       3.54634000      -2.14170613
C        5.11038653       3.28782000      -2.16307817
H        4.89106822       4.17931000      -2.01044627
H       -4.77047993       1.45844000      -0.80606005
