39
Properties=species:S:1:pos:R:3 pbc="F F F"
O        1.31951651       0.00000000      -1.33143543
O        1.26718313      -0.97560900      -4.82450640
C       -0.58410253      -0.59341500      -2.65227670
H       -0.56276350      -1.55878600      -2.56354923
C        0.80718374      -0.04641900      -2.63975109
H        0.76861754       0.87278100      -2.97740399
C        1.76754520      -0.79787200      -3.48578021
H        2.60926938      -0.31770900      -3.51985552
H        1.93388748      -1.66639200      -3.08771132
C        2.00544892      -1.72670800      -5.71179977
C        3.21321179      -2.28883500      -5.43877196
H        3.59657918      -2.17801100      -4.59890760
C        3.88472001      -3.03892700      -6.41869504
H        4.71678006      -3.40443900      -6.22309428
C        3.34721133      -3.23733600      -7.63735274
H        3.81489568      -3.72706300      -8.27530103
C        2.08240007      -2.70898000      -7.95056592
C        1.46999944      -2.85058800      -9.22305380
H        1.91034441      -3.33009000      -9.88724567
C        0.25547173      -2.30407100      -9.49716198
H       -0.11046341      -2.39131200     -10.34674397
C       -0.44378897      -1.61112300      -8.50240192
H       -1.29024239      -1.26914300      -8.68183424
C        0.11299643      -1.43868100      -7.27953542
H       -0.35732364      -0.97105100      -6.62748970
C        1.37740087      -1.94960800      -6.97720129
N       -1.31951651      -0.00000000      -1.52952766
H       -1.48258101       0.86905700      -1.74367230
C       -2.48295197      -2.03797600      -0.70063255
H       -2.11071003      -2.59816400      -1.38558161
H       -3.34048692      -2.38092400      -0.43795452
H       -1.89548122      -2.02787400       0.05852752
C       -2.64357072      -0.63811500      -1.22928885
H       -3.06393441      -0.10682600      -0.51997218
C       -3.57465881      -0.59053900      -2.43916780
H       -3.53994967       0.28268800      -2.83655520
H       -4.47310871      -0.77752100      -2.15794154
H       -3.29665542      -1.24535200      -3.08200510
H       -1.02141155      -0.37239500      -3.49090814
