15
Properties=species:S:1:pos:R:3 pbc="F F F"
O       -1.30564810       0.00000000      -1.42489548
O        1.30564810      -0.00000000      -1.46671619
O       -1.49624407       0.19283600      -3.64582276
O        0.80329005       2.40759700      -2.98155097
H        0.19867572       2.75475000      -3.41350000
C       -0.82450300       0.06620800      -2.60402359
C        0.69131970      -0.00836100      -2.76228865
H        0.92708017      -0.83852600      -3.22618605
C        1.17370286       1.18364000      -3.58785859
H        0.76068612       1.13747000      -4.47518694
H        1.82067300      -0.51156400      -1.35820220
O        3.37405611       2.16135800      -3.67384591
O        3.14106977      -0.04513200      -4.00058774
H        3.95850244      -0.04587500      -3.93651584
C        2.68777849       1.15111900      -3.75413199
