17
Properties=species:S:1:pos:R:3 pbc="F F F"
S       -1.45862212      -0.00000000      -1.86632688
S        1.45862212       0.00000000      -2.01062717
O       -0.20196741       0.54299700      -4.01555673
C        1.07762184       2.52817700      -4.47955154
H        1.45686599       2.62548200      -3.60333613
H        0.22272278       2.96581700      -4.50895697
H        1.66242196       2.92650200      -5.12726235
C        0.89521726       1.00001500      -4.80573128
C       -0.04617098       0.21740000      -2.71909226
C        1.09209391       0.59436000      -7.05871558
H        0.64945368       0.61252500      -7.90862834
H        1.35300301      -0.31073900      -6.85342096
H        1.87044488       1.15024500      -7.08549532
C        0.35299940       0.98996900      -6.21836963
H        0.08440404       1.89035900      -6.44826708
H        1.71170106       0.47211900      -4.69169854
H       -0.44719678       0.43698400      -6.23046411
