37
Properties=species:S:1:pos:R:3 pbc="F F F"
O        2.22807189      -0.11345000      -3.46395127
O       -2.26865931      -0.14652300      -3.42411944
N        1.37640474       0.00000000      -1.40093729
N       -0.01376614      -0.15843500      -3.34719762
N       -1.37640474      -0.00000000      -1.36703517
C        1.12828556      -0.07675200      -2.67084317
C       -1.15873004      -0.09884100      -2.65440175
C       -3.38872592      -0.22557100      -2.51029128
C       -2.81562132       0.25374400      -1.18222473
C       -3.10743595       1.71307900      -0.82957387
C       -2.60060018       2.68142700      -1.86332735
C       -4.59611089       1.91909000      -0.55125161
H       -4.13057564       0.35743200      -2.80691229
H       -3.72103137      -1.15585300      -2.43635109
H       -3.15837289      -0.33116400      -0.44859357
H       -2.62019815       1.91219500       0.02118813
H       -2.80414310       3.59744200      -1.57896909
H       -3.03736545       2.50100800      -2.72234735
H       -1.63157757       2.57826100      -1.96188044
H       -4.75628422       2.85604100      -0.31433605
H       -4.87218688       1.34160300       0.19021796
H       -5.11266083       1.69212100      -1.35264472
C        3.34933904       0.13048000      -2.62024933
C        2.84387207      -0.10007600      -1.19432905
C        3.24922831      -1.41847200      -0.56281055
C        4.75359401      -1.38825000      -0.23619459
C        2.88877634      -2.61602500      -1.39910836
H        4.08923632      -0.49470700      -2.83227201
H        3.67526124       1.05889800      -2.72995852
H        3.14774053       0.65491700      -0.61041237
H        2.75701757      -1.49969200       0.30322001
H        5.01659566      -2.23869000       0.17020645
H        4.93547889      -0.65637600       0.39148813
H        5.26433789      -1.24716900      -1.06023720
H        3.16970378      -3.43470600      -0.93709237
H        3.34244139      -2.55839300      -2.26557420
H        1.91924479      -2.63712400      -1.53854242
