37
Properties=species:S:1:pos:R:3 pbc="F F F"
O        2.24273993      -0.19213300      -3.44204886
N       -0.00869614      -0.08328200      -3.34855687
N        1.36996763       0.00000000      -1.38167348
C        1.14536338      -0.08033000      -2.66653384
C        3.37430455      -0.00844600      -2.57197428
C        2.81765530      -0.13068900      -1.15516432
C        3.14093420      -1.42980400      -0.42469278
C        2.80909328      -2.66381200      -1.21800211
C        4.60155848      -1.42790000       0.03165425
H        4.05984188      -0.70175100      -2.74044663
H        3.78002966       0.88329500      -2.71220901
H        3.13713742       0.64323600      -0.60789160
H        2.57555731      -1.45031400       0.39967778
H        3.03310899      -3.46045100      -0.69198630
H        3.32489176      -2.66716400      -2.05091419
H        1.85071658      -2.67087500      -1.42773906
H        4.80037549      -2.26963900       0.49431873
H        4.75252614      -0.67658200       0.64305651
H        5.18765572      -1.33905100      -0.74865393
O       -2.25457989       0.08077900      -3.43789900
N       -1.36996763      -0.00000000      -1.38243006
C       -1.12877297      -0.00851700      -2.66569006
C       -3.38739982       0.03451500      -2.56414269
C       -2.82360835       0.20449300      -1.15321704
C       -3.11569148       1.53773900      -0.49113481
C       -2.61874500       2.71663000      -1.30602001
C       -4.57038304       1.63494000      -0.17794905
H       -4.02215024       0.76254300      -2.77666100
H       -3.85793518      -0.83324000      -2.64946344
H       -3.16808787      -0.53168500      -0.57108402
H       -2.62393158       1.55063200       0.37914821
H       -2.82776135       3.54938700      -0.83508808
H       -3.05913941       2.71680100      -2.18271062
H       -1.64847575       2.64367200      -1.42719948
H       -4.75703802       2.49934300       0.24386308
H       -4.82193792       0.91152400       0.43369751
H       -5.08885194       1.55809800      -1.00538681
