27
Properties=species:S:1:pos:R:3 pbc="F F F"
S        2.86874534      -0.17500100      -1.65741124
C        3.53341639       1.42662600      -2.08826532
C        4.15675492       1.62117900      -3.31515791
C        4.65728542       2.87390400      -3.64988618
H        5.07373931       3.00421800      -4.47158222
C        4.53522394       3.93212900      -2.75749665
C        3.91231596       3.73800200      -1.53009713
H        3.83024771       4.44598900      -0.93248766
C        3.41103659       2.48522500      -1.19559597
H        2.99446427       2.35556800      -0.37472657
N        1.31503986       0.00000000      -1.53898101
O        3.42844911      -0.50745000      -0.35878056
C       -0.71958514       0.68096500      -2.62223154
H       -0.66679456       1.63373300      -2.44703861
H       -1.26786439       0.54683300      -3.41096994
C        0.65290232       0.12899600      -2.85555905
N       -1.31503986      -0.00000000      -1.48386564
H       -1.54015479      -0.84273200      -1.69737495
H       -2.05992965       0.43771100      -1.23495043
C        5.02195980       5.32004100      -3.16339305
H        5.81897021       5.23981900      -3.70604868
H        4.35325539       5.78992100      -3.61244511
H        5.28644557       5.82514300      -2.35218821
O        3.26593651      -1.04501600      -2.75236190
H        0.59516101      -0.73818900      -3.28678936
H        4.23810306       0.91297700      -3.91278917
H        1.16061720       0.72406400      -3.42794151
