34
Properties=species:S:1:pos:R:3 pbc="F F F"
S        2.69206855      -0.12214500      -1.76451362
O        3.14313922       0.46527000      -3.00835823
O        3.18266372       0.44623900      -0.53786127
O       -0.23603972      -0.84529700      -6.20330393
O       -3.29504110      -0.01432000      -2.93955579
N        1.07843123      -0.00000000      -1.66795227
N       -1.07843123       0.00000000      -2.33334135
N       -1.82449258      -0.45739500      -4.56376718
N        3.98610679      -5.90106400      -1.70207750
H        4.07367254      -6.33056300      -2.43248932
H        4.41172525      -6.14577100      -1.03618138
C        3.13745542      -1.81911500      -1.77619348
C        3.58823628      -2.41857000      -0.60860164
H        3.67824832      -1.90172500       0.18443712
C        3.90658815      -3.76273800      -0.59378659
H        4.23567363      -4.15632300       0.20453442
C        3.75074449      -4.55463300      -1.73979578
C        3.32280504      -3.93400800      -2.91985354
H        3.23462559      -4.44509400      -3.71483942
C        3.02636826      -2.57898100      -2.93647682
H        2.74591436      -2.16664400      -3.74539764
C        0.22677586      -0.14765700      -2.73467707
C       -1.98896397      -0.15614200      -3.27340138
C       -0.54332077      -0.56332800      -4.92643392
C        0.53020391      -0.40353500      -4.06127856
H        1.42868797      -0.46660900      -4.36369649
C       -1.31703096      -1.13916300      -7.11284768
H       -1.92640501      -0.37313200      -7.15492397
H       -0.95393742      -1.31592400      -8.00540913
H       -1.80459714      -1.92801300      -6.79683443
C       -3.57798712       0.42244400      -1.60005707
H       -3.15660145       1.29339600      -1.44524715
H       -4.54668718       0.50153500      -1.48019332
H       -3.22319489      -0.23028300      -0.96189728
