27
Properties=species:S:1:pos:R:3 pbc="F F F"
O       -1.31494418       0.00000000      -1.38726537
N        1.31494418      -0.00000000      -1.51925397
C       -0.88168273      -0.21044600      -2.57283838
C        0.61054999      -0.60428100      -2.69223470
C        0.75777485      -2.13630800      -2.81488631
C        0.16422235      -2.61857700      -4.12716810
C        0.67195423      -4.05239600      -4.49656407
C        0.20239305      -2.89734400      -1.62718941
C        1.48655512       1.46334900      -1.78045976
C        2.66205845      -0.57525200      -1.26329624
H        1.06850657      -0.22052700      -3.59137882
H        1.81629148      -2.34915500      -2.81421882
H       -0.91181357      -2.64107900      -4.03799640
H        0.23039416      -4.36117500      -5.43254595
H        0.38929728      -4.74660400      -3.71844874
H        1.74782191      -4.03923600      -4.59290557
H        0.64935877      -2.52243800      -0.71858285
H        0.43021951      -3.94775800      -1.73379304
H       -0.86823991      -2.76415600      -1.58347036
H        0.52200016       1.91027200      -1.97076769
H        2.12390837       1.60334000      -2.64007325
H        1.93671285       1.93267100      -0.91766760
H        2.57031068      -1.63356400      -1.06959771
H        3.10247406      -0.08998700      -0.40392597
H        3.29032351      -0.41913800      -2.12625816
O       -1.56304450      -0.14019100      -3.58587143
H        0.44671106      -1.93371000      -4.91245323
