39
Properties=species:S:1:pos:R:3 pbc="F F F"
O       -1.44278521      -0.00000000      -1.22354046
N        1.44278521       0.00000000      -1.39662229
C       -1.38420102      -0.09954000      -2.51626073
C       -0.16663507      -0.17536400      -3.25085402
C        1.14397236      -0.11598100      -2.63958232
H        1.87313942      -0.16915400      -3.23160130
C        2.88840436       0.06333700      -1.00257443
C        3.06681060      -0.84782700       0.22613758
H        2.88864817      -1.77793200      -0.02644839
H        2.42531145      -0.59126500       0.92062252
C        3.88351168      -0.40099700      -2.08203723
H        3.79617100       0.16344100      -2.87852409
H        3.68596148      -1.32560500      -2.33897737
C        3.21760307       1.51979200      -0.64111918
H        3.13315686       2.08471100      -1.43698008
H        2.58522088       1.84422500       0.03263925
C        5.48835597      -1.18350300      -0.29480801
H        6.40391419      -1.10230300       0.04751511
C        4.49263838      -0.73108200       0.77371268
H        4.58592684      -1.30507300       1.57512911
C        5.31840657      -0.30983500      -1.53609140
H        5.95064833      -0.61178700      -2.23471496
C        4.64984768       1.61063100      -0.09230684
H        4.85029677       2.54983200       0.15102782
C        4.77641105       0.72336200       1.15377641
H        4.13834473       1.01820200       1.83688905
H        5.68042790       0.79884000       1.52475570
C        5.63863694       1.14203000      -1.16398156
H        5.56631127       1.71370100      -1.95685993
H        6.55485465       1.20409400      -0.82171227
Br      -4.22814823      -0.11741000      -2.35730820
Br      -1.36426191      -0.53794200      -7.22374971
C       -2.57933240      -0.16160000      -3.28423682
C       -2.59314419      -0.26628900      -4.65991548
H       -3.40624303      -0.27833900      -5.13312244
C       -1.37418919      -0.35395900      -5.32938648
C       -0.18786492      -0.32218700      -4.65012034
H        0.62132385      -0.39793600      -5.12200090
H        5.32788140      -2.12235000      -0.52349874
