35
Properties=species:S:1:pos:R:3 pbc="F F F"
O       -1.43076888      -0.00000000      -1.27314775
O       -2.40822734      -0.05319100      -7.37911204
O       -0.29453148       0.25729900      -7.37983251
N        1.43076888       0.00000000      -1.44036020
N       -1.34478467       0.08255300      -6.79694218
C       -1.35459140      -0.00968700      -2.57165472
C       -2.48426365      -0.40817900      -3.31616907
H       -3.24432457      -0.69809500      -2.86616574
C       -2.48829979      -0.37899500      -4.69205412
H       -3.24912295      -0.62526200      -5.16917645
C       -1.33542498       0.02454300      -5.35345125
C       -0.20629538       0.40272900      -4.66060534
H        0.55368220       0.66142500      -5.12888076
C       -0.18729542       0.40281200      -3.27773240
C        1.02576576       0.89913300      -2.54678360
H        1.75998598       0.98247400      -3.17345502
C        1.86998592      -1.34396100      -1.90713301
H        1.10646615      -1.76631000      -2.35140643
C        2.99650414      -1.25624600      -2.91980063
C        2.81651506      -1.72346200      -4.20786280
H        2.00245365      -2.09108300      -4.46777801
C        2.25369732      -2.21748300      -0.72261781
H        1.52301700      -2.25270800      -0.10037973
H        3.02477397      -1.84775300      -0.28899611
H        2.45441767      -3.10464200      -1.03101173
C        3.87580629      -1.63443300      -5.11481599
H        3.74531468      -1.93581400      -5.98465234
C        5.06766955      -1.13600400      -4.78279788
H        5.76253240      -1.11724900      -5.40057464
C        5.24778991      -0.65448000      -3.52034878
H        6.06649306      -0.27374900      -3.29300313
C        4.23416052      -0.71723400      -2.55785711
H        2.13608284       0.34200700      -1.04839680
H        0.83956014       1.78102300      -2.18713281
H        4.38034486      -0.40588600      -1.69356237
