40
Properties=species:S:1:pos:R:3 pbc="F F F"
C       -0.78283393      -0.03724900      -2.71961719
C        0.72438355      -0.14196300      -2.78035484
H        0.97218770      -1.01969200      -3.16453924
H        1.07335093       0.56262700      -3.38182388
C        2.62622738       0.07640000      -1.45978230
C        3.54419824       0.02216000      -2.66399804
H        3.33114369       0.73922900      -3.31173313
H        3.48979499      -0.85567000      -3.11883969
C        4.93013296       0.23757100      -2.02374996
H        5.70062010      -0.06450100      -2.58577108
C        4.79523095      -0.48475600      -0.67513482
C        4.56415096      -1.99224100      -0.82282889
C        5.98457034      -0.27837000       0.27618865
H        6.77943699      -0.71543300      -0.09471640
H        5.77504736      -0.66945300       1.15066375
H        6.15657178       0.68010600       0.38074007
C        4.97258735       1.72070200      -1.61810795
H        4.67472723       2.30512900      -2.35974087
H        5.88265113       1.99013500      -1.33741920
C        3.97997874       1.77273200      -0.42878426
H        3.20922756       2.35908800      -0.63535660
H        4.42537405       2.10460500       0.39043623
C        3.52406642       0.29514400      -0.25605398
C        2.93141276      -0.00364600       1.10527245
H        2.20357959       0.62611500       1.29040434
H        3.62564287       0.08771400       1.79111054
H        2.58070911      -0.91889000       1.11558802
N       -1.35690902       0.00000000      -1.52073043
N        1.35690902      -0.00000000      -1.45406749
C       -2.69734648       0.08688900      -1.44832270
H       -3.10839449       0.11829900      -0.59144863
C       -3.49293332       0.13338900      -2.56987641
H       -4.43747088       0.18232200      -2.48943639
C       -2.89453884       0.10761600      -3.81629367
H       -3.41857038       0.17578600      -4.60522168
C       -1.51863353      -0.01833900      -3.89515599
H       -1.08654422      -0.09091100      -4.73859397
H        5.29917174      -2.38699800      -1.33606592
H        3.71749917      -2.14885100      -1.29138788
H        4.52741144      -2.40555400       0.06550073
