14
Properties=species:S:1:pos:R:3 pbc="F F F"
S        2.87284342      -1.28153100      -3.19539273
N        1.34786030      -0.00000000      -1.49756803
C        0.60980456       0.06551100      -2.80513030
C        1.15982005      -1.03448400      -3.74143191
H        0.72750506       1.03504600      -3.13806666
H        1.10927910      -0.61320600      -4.58626295
H        2.05228624       0.69738800      -1.57808399
C        2.28983115      -1.15739800      -1.47586322
H        2.97017925      -1.14209800      -0.89136207
O       -1.61562396      -0.33128800      -3.57232751
O       -1.34786030       0.00000000      -1.42386894
C       -0.90666309      -0.12202000      -2.58898146
H        1.81791093      -2.13891400      -1.25158867
H        0.60566376      -1.95577600      -3.65709196
