12
Properties=species:S:1:pos:R:3 pbc="F F F"
S        3.07244909      -0.72519200      -3.22271525
N        1.34377027      -0.00000000      -1.48086885
C        0.66674386       0.17895300      -2.75840288
C        1.33892207      -0.74492200      -3.74420962
C        2.58982018      -0.51351500      -1.46920464
H        1.29919691      -0.34381300      -4.62571579
H        0.90280165      -1.66949300      -4.01332991
O       -1.48732366      -0.06735000      -3.67387555
O       -1.34377027       0.00000000      -1.45054406
C       -0.84735162       0.01226200      -2.63133881
H        0.96520700       1.29073800      -3.03731682
H        3.27302188      -0.69092300      -0.81874305
