26
Properties=species:S:1:pos:R:3 pbc="F F F"
O       -1.33331116      -0.00000000      -1.41245290
N        1.33331116       0.00000000      -1.52264961
H        1.91759858      -0.67195600      -1.39336119
C       -0.88553421      -0.02238900      -2.58962642
O        4.78943816       4.13799800      -4.30455476
H        5.35660225       4.12592600      -4.89593283
C        3.19219518       1.40190500      -2.54117301
C        4.53510067       2.86004900      -3.89333346
C        3.48173113       2.66666700      -3.02027858
H        2.96443165       3.39223300      -2.75257735
C        3.96359928       0.33580800      -2.95811500
H        3.78191907      -0.51949400      -2.64216440
C        5.28638568       1.78960000      -4.32639351
H        5.97560130       1.91270200      -4.93741205
C        2.09138788       1.26632100      -1.50882856
H        2.48614889       1.37355400      -0.62918098
H        1.46492246       1.99519500      -1.63625450
C        5.00126098       0.53530800      -3.83964112
H        5.51845022      -0.18880900      -4.11015586
C        0.60780601      -0.25959100      -2.78294268
H        0.93845334       0.35583700      -3.46951433
C        0.81365564      -1.69587900      -3.27009578
H        1.75192957      -1.85980900      -3.39465974
H        0.35333523      -1.82023000      -4.10350087
H        0.46438468      -2.30837900      -2.61806080
O       -1.58906147       0.09642000      -3.60571962
