40
Properties=species:S:1:pos:R:3 pbc="F F F"
O        1.35890426      -0.00000000      -1.38793772
C        2.53779024      -0.65949000      -3.27854603
C        1.23394431      -0.52808500      -2.52875836
C        0.00762145      -0.94435300      -3.09968998
C        0.05227282      -1.72264900      -4.41576544
C        0.75367715      -3.07118200      -4.26066932
C        1.69043073      -3.50074300      -5.17711531
C        2.26993450      -4.76269700      -5.07147377
C        1.92584343      -5.56460500      -4.03173273
C        1.03334430      -5.16275900      -3.08573312
C        0.43497752      -3.90758400      -3.19710908
H        2.38022337      -1.07003700      -4.11509495
H        2.91416936       0.20328300      -3.40606030
H        3.14038958      -1.19233000      -2.76786714
H        0.55368160      -1.20553500      -5.03541304
H        1.94559595      -2.92832400      -5.89202629
H        0.82445487      -5.73121500      -2.35279618
H       -0.19349239      -3.62391000      -2.54229680
O       -1.35890426       0.00000000      -1.38191863
O       -1.81312923       0.41396800      -5.34682117
O       -0.41479704      -1.77860300      -7.25010807
C       -1.19108423      -0.55873500      -2.51964223
C       -2.48451820      -0.73090400      -3.28845182
C       -2.32053855      -0.82124800      -4.79797074
C       -1.33379147      -1.99189200      -5.04486978
C       -3.67744292      -1.03050900      -5.43409864
C       -1.21943468      -2.30794000      -6.53274808
C       -2.16760311      -3.33527500      -7.09584192
H       -2.90236947      -1.53109900      -2.99336389
H       -3.04433459       0.01116300      -3.09530346
H       -1.69632426      -2.75961700      -4.61704797
H       -0.82227064       0.66099800      -4.93047963
H       -4.24249814      -0.29801600      -5.21653415
H       -3.57798302      -1.08428000      -6.37699755
H       -4.05401788      -1.83411000      -5.10590095
H       -2.69574555      -2.93714100      -7.77606601
H       -1.66901994      -4.05672900      -7.46128153
H       -2.73084122      -3.65935800      -6.40244570
Cl       2.65022471      -7.15212600      -3.89799755
H        2.89906627      -5.06090900      -5.72022546
