32
Properties=species:S:1:pos:R:3 pbc="F F F"
N       -1.37675468       0.00000000      -1.54618736
C        1.81318779      -1.40453000      -1.71478052
C        0.54944415      -2.27106800      -1.71739353
N       -0.46297106      -1.82501400      -2.69393591
C       -1.83817211      -2.23469600      -2.29382950
C       -2.42379440      -1.06745500      -1.45800654
C       -0.63968891      -0.38900200      -2.78441119
H        2.40383085      -1.66667600      -0.97764658
H        0.80049224      -3.19660800      -1.92134893
H        0.15367914      -2.25895200      -0.82159851
H       -1.80862625      -3.05600700      -1.75975855
H       -2.39029510      -2.39782700      -3.08693415
H       -3.27386531      -0.75691100      -1.83602492
H       -2.56983259      -1.34083100      -0.52866989
H       -1.17522883      -0.16166600      -3.58558069
C       -1.80894631       1.40703500      -1.70577486
C       -0.54941365       2.26870300      -1.69054253
N        0.46441777       1.83567700      -2.67599263
C        1.83608394       2.24036600      -2.25464914
C        2.44033908       1.03567100      -1.47977178
N        1.37675468      -0.00000000      -1.54810816
C        0.63166703       0.39738800      -2.77402327
H       -2.40523446       1.66470600      -0.97228095
H       -2.28861238       1.52182700      -2.55201608
H       -0.79821498       3.19851400      -1.87732939
H       -0.15414086       2.23972900      -0.79463556
H        1.79471934       3.03208800      -1.67728389
H        2.63450682       1.27815000      -0.54962003
H        3.26431047       0.72136700      -1.90709302
H        1.16739878       0.17738300      -3.57675561
H        2.30161952      -1.51148000      -2.55831650
H        2.38451060       2.45321400      -3.03806698
