35
Properties=species:S:1:pos:R:3 pbc="F F F"
N        1.39160661      -0.00000000      -1.53005616
C        1.71762485      -1.43976300      -1.75962682
C        0.44811057      -2.25158000      -1.75636381
N       -0.48408927      -1.76999700      -2.80317862
C       -1.87002831      -2.16985300      -2.47855667
C       -2.40289283      -1.09769200      -1.49747156
N       -1.39160661      -0.00000000      -1.55960445
C       -1.91654451       1.38053200      -1.70507083
C       -0.72098092       2.31245200      -1.71664370
N        0.31308532       1.89762300      -2.68644855
C        1.54896327       2.69299300      -2.54813282
C        2.65325892       0.77906900      -1.37957098
C        0.64017063       0.48831600      -2.74106668
C       -0.61106337      -0.32735800      -2.80357439
H        2.32332976      -1.76392600      -1.04671161
H        2.17924832      -1.54348100      -2.62932358
H        0.01342167      -2.18186600      -0.86908207
H       -1.88358218      -3.06474100      -2.05575217
H       -2.42380379      -2.19764400      -3.29851987
H       -3.29393143      -0.77260100      -1.78055595
H       -2.47149717      -1.46289400      -0.58024768
H       -2.51694174       1.60148600      -0.94984110
H       -2.42706865       1.46677700      -2.54845837
H       -1.02634304       3.22727900      -1.94066921
H       -0.32314720       2.33833200      -0.81090501
H        1.31179317       3.65096500      -2.46281217
H        1.18750624       0.31068300      -3.55913944
H       -1.14145260      -0.04786700      -3.60334922
C        2.37599767       2.26826100      -1.32949799
H        3.23191803       2.76567900      -1.31842894
H        3.25427395       0.58192100      -2.14149001
H        1.88205190       2.48653100      -0.49947378
H        3.11310224       0.50248700      -0.54785860
H        0.66393890      -3.20365700      -1.91844572
H        2.09731992       2.58729200      -3.36549077
