38
Properties=species:S:1:pos:R:3 pbc="F F F"
N       -1.51880732       2.16733600      -2.70581622
C       -1.33200254       3.15754600      -1.63969733
C        0.12909198       3.48576500      -1.50846594
N        0.85052803       2.26060200      -1.12378394
C        2.25706602       2.58914700      -0.86354613
C        2.98954661       1.34666400      -0.37369031
N        1.32328055       0.00000000      -1.62355834
C        0.02485757      -2.05363400      -2.12667120
C       -1.34042458      -1.38086300      -2.19877134
N       -1.32328055      -0.00000000      -1.62844504
C       -2.73424358       0.50959700      -1.49971615
C       -2.86116878       1.55193100      -2.60813128
C       -0.66261724       0.98021400      -2.59190905
C        0.77017991       1.26455200      -2.19254369
H       -1.67160066       2.79575800      -0.78318559
H       -1.84179113       3.97902000      -1.85315693
H        0.47879468       3.82839200      -2.37013362
H        0.25302225       4.27094800      -0.83314887
H        2.31420577       3.30292300      -0.17971577
H        2.65823044       1.10150300       0.52681213
H       -1.63207384      -1.33876200      -3.14448015
H       -1.99968676      -1.92887600      -1.70280948
H       -2.88210712       0.91930200      -0.61122127
H       -3.38822049      -0.22366800      -1.62813261
H       -3.11495723       1.12404400      -3.46485330
H       -3.54212951       2.23089500      -2.37514150
H       -0.63939439       0.54301900      -3.49046481
C        1.19022629      -1.17002000      -2.54119302
H        2.02614632      -1.69815300      -2.52517430
H        1.04736165      -0.84886200      -3.46650629
C        2.77729124       0.19965600      -1.31557788
H        3.14227556      -0.62775800      -0.91164361
H        3.26981005       0.37149800      -2.15582730
H        2.68260516       2.92290000      -1.69410815
H        0.17722665      -2.36033900      -1.19791109
H        0.01315901      -2.85456700      -2.70887862
H        3.95819497       1.54023700      -0.30164123
H        1.30509479       1.55722100      -2.98561492
