37
Properties=species:S:1:pos:R:3 pbc="F F F"
S        2.85677055       0.15069900      -1.18187826
O        3.29405126       1.47720600      -1.48855452
N        1.27458306      -0.00000000      -1.38948876
N       -1.27458306       0.00000000      -1.56033591
C       -2.66806924      -0.09559700      -1.54546783
H       -3.13945402      -0.16353100      -0.74657410
C       -3.32370816      -0.08488400      -2.77495118
H       -4.24668731      -0.20727100      -2.78668337
C       -2.68547731       0.09331300      -3.93901353
H       -3.14328318       0.10584100      -4.74810125
C       -1.41901218       0.24519700      -3.88704683
H       -0.95430220       0.38249000      -4.67928598
C       -0.73503805       0.21350300      -2.73894704
C        0.85676227       0.35483700      -2.71334229
H        1.26034716      -0.23880400      -3.36615873
H        1.12055288       1.26607600      -2.91889521
C        3.59227023      -0.97543500      -2.36402422
C        3.48532124      -2.31254600      -2.15232402
C        4.02068684      -3.21067900      -3.02610646
H        3.87596560      -4.11684300      -2.87107172
C        4.79156831      -2.82966900      -4.16877384
C        4.90531318      -1.56530100      -4.32158743
H        5.38373610      -1.27858100      -5.06547475
C        4.37873492      -0.54892200      -3.47411750
C        5.44304869      -3.76456800      -5.17611823
H        5.36562739      -4.67034000      -4.86920022
H        6.36993964      -3.53754600      -5.27047428
H        5.00371636      -3.67556700      -6.02484627
C        2.73799897      -2.97345700      -0.97923849
H        1.85231963      -2.60982900      -0.91948781
H        3.20985299      -2.80149100      -0.16130513
H        2.68670298      -3.92100500      -1.12587673
C        4.58282023       0.88149300      -3.83295449
H        5.01617770       0.93756200      -4.68832515
H        5.13213472       1.30247600      -3.16813204
H        3.73342230       1.32628700      -3.87599207
O        3.13170508      -0.28071600       0.12178715
