36
Properties=species:S:1:pos:R:3 pbc="F F F"
S        2.86370249      -0.16098800      -1.29232350
S       -2.88005934      -0.02175200      -1.41495318
O        3.25719845       0.42898400      -0.01951169
O        3.32001948      -1.51465800      -1.54762895
O       -3.29391950      -0.45659600      -0.09938752
N        1.30765775       0.00000000      -1.44935763
N       -1.30765775      -0.00000000      -1.47660642
C        0.70042661      -0.56324200      -2.66102990
H        1.14666463      -0.27257700      -3.43242859
H        0.68459947      -1.52195200      -2.64121784
C       -0.67578211       0.03748900      -2.81114259
H       -1.17304075      -0.47180500      -3.44798677
H       -0.57264090       0.95011700      -3.15736650
C        3.55413589       0.82298500      -2.58798172
C        3.66138225       2.20409100      -2.41732845
H        3.40227541       2.61916900      -1.62310228
C        4.21202417       2.97863600      -3.42139963
H        4.36579216       3.89131300      -3.23957726
C        4.66737797       2.38911600      -4.58868171
H        5.10796885       2.79588500      -5.31090970
C        4.57432323       1.03797300      -4.74339172
H        4.94493869       0.68804800      -5.40924067
C        4.02554814       0.24248400      -3.74143567
H        3.96175743      -0.77275700      -3.66933049
C       -3.46088893       1.65924800      -1.56716676
C       -3.04944548       3.98330500      -2.01530283
C       -2.57841983       2.69388600      -1.86411181
H       -1.67077392       2.62869400      -1.88447003
O       -3.45859009      -0.72817200      -2.54206080
C       -4.82404188       1.91370200      -1.42323603
C       -5.28074470       3.22116000      -1.53902545
H       -6.16352636       3.21531800      -1.46741929
C       -4.39762637       4.25489000      -1.84230554
H       -4.68177410       5.15552400      -1.90108984
H       -2.50582573       4.79259300      -2.05233160
H       -5.39363992       1.32901400      -1.28571405
