38
Properties=species:S:1:pos:R:3 pbc="F F F"
O       -1.40886558      -0.00000000      -1.31460687
O        1.40886558       0.00000000      -1.29005800
C       -2.27223775      -0.41246400      -3.57220721
C       -1.17311476      -0.24066500      -2.53915221
C        0.06425877      -0.45684200      -3.17899025
C       -0.28848938      -0.79487500      -4.62520013
H        0.45310997      -0.67680100      -5.28623029
C       -0.92746680      -2.21187400      -4.58531870
H       -1.10423566      -2.55202400      -5.49857141
H       -0.34742668      -2.85395100      -4.10610956
C       -2.25346739      -1.96416400      -3.81174416
H       -3.03528168      -2.24945200      -4.34784809
C       -1.53191797       0.11743400      -4.84647571
C       -1.20999160       1.60448100      -4.79445764
H       -0.66267079       1.84790800      -5.57091714
H       -0.71566334       1.80352800      -3.97221610
H       -2.04293470       2.12018400      -4.80710152
C       -2.29840364      -0.16540500      -6.14039529
H       -1.72807576       0.04252800      -6.90963960
H       -3.10419677       0.39187400      -6.17172952
H       -2.55380469      -1.11109600      -6.16887014
C       -3.61706648       0.17730700      -3.21407276
C        1.28011046      -0.33562500      -2.53846674
C        2.58000283      -0.57701900      -3.24374604
C        2.75041673      -1.70176700      -4.06343111
H        2.02376373      -2.29285800      -4.22137136
C        3.99621533      -1.94991800      -4.64748651
H        4.11833361      -2.71727700      -5.19436113
C        5.05264110      -1.07938300      -4.42983101
H        5.89674722      -1.25051200      -4.82937647
C        4.88173148       0.04566000      -3.62777944
H        5.60285652       0.65010300      -3.49256350
C        3.65299738       0.27877300      -3.02645661
H        3.54395086       1.03328600      -2.45908625
H       -4.26198371      -0.01787500      -3.92742183
H       -3.53292302       1.14897100      -3.11123259
H       -2.25743527      -2.45537800      -2.95109921
H       -3.93404150      -0.21247900      -2.37297442
