34
Properties=species:S:1:pos:R:3 pbc="F F F"
S        2.82792480       0.40525300      -1.18169501
O        2.88401899       0.91570500       0.16010473
O        3.72625184      -0.66689100      -1.51354478
N       -1.29405727      -0.00000000      -1.55092003
N        1.29405727      -0.00000000      -1.41959286
C       -2.61463030       0.05583900      -1.55038684
H       -2.96724770       0.26766500      -0.66288455
C       -3.37846496      -0.20146500      -2.69884345
C       -1.33389525      -0.61443400      -3.90315961
C       -0.59337936      -1.00965800      -5.04282725
C        0.75358688      -1.12876700      -4.94887044
H        1.40684061      -1.47466500      -5.70147367
C        1.46696304      -0.81943900      -3.76721058
H        2.47566767      -0.93837400      -3.76925380
C        0.78249049      -0.38355900      -2.65178214
C       -0.64507100      -0.32376400      -2.71564311
C       -2.75409602      -0.52878800      -3.86114648
H       -3.17671131      -0.68893800      -4.65519789
C        3.20673816       1.72320400      -2.32784246
H        2.97585737       1.38819400      -3.19638396
H        4.14776919       1.95264200      -2.28896348
C        2.57560749       3.05187900      -2.03884207
C        1.24014747       3.28908900      -2.22725344
C        0.70262418       4.53379300      -2.02022325
H       -0.25560206       4.83682800      -2.19863367
C        1.49937672       5.57372700      -1.62113900
H        1.14120818       6.42016800      -1.47868252
C        2.83152722       5.34400000      -1.42608952
H        3.34676836       6.30079800      -1.39229528
C        3.34362469       4.11194600      -1.62869428
H        4.24889286       3.97736100      -1.47715106
H       -4.43785084      -0.14941000      -2.64449014
H        0.73344556       2.51838800      -2.69329635
H       -1.02970183      -1.19938200      -5.90699059
