46
Properties=species:S:1:pos:R:3 pbc="F F F"
N       -1.39222957       0.00000000      -1.52675193
N        1.39222957      -0.00000000      -1.44819681
H        1.76031858      -0.81007600      -1.45423742
C       -2.09229894      -2.23487900      -0.60991445
H       -1.62390354      -2.76244500      -1.26151103
H       -2.86011182      -2.71944700      -0.29842565
H       -1.50904807      -2.04953800       0.12996882
C       -2.49733514      -1.04894500      -1.18358327
H       -3.13329327      -0.62982100      -0.58332452
H       -2.97273456      -1.26169600      -2.00237096
C       -3.30359977       1.22435800      -2.58432005
H       -3.05556335       1.70709400      -3.37668618
H       -4.06015043       1.65029900      -2.17445812
H       -3.53033946       0.32191400      -2.81689761
C       -2.19296325       1.21972800      -1.65761936
H       -2.54288872       1.43771400      -0.77910172
H       -1.59421450       1.93859800      -1.91167192
C       -0.67979740      -0.50118900      -2.69544930
H       -1.18057928      -0.29866500      -3.50159114
H       -0.57650382      -1.46394000      -2.63444059
C        0.69981786       0.17298900      -2.75142250
H        1.23119275      -0.22555200      -3.45966027
H        0.59644218       1.11722000      -2.94552572
C        2.47843083       0.96816100      -1.15226336
H        2.92280430       0.65291200      -0.33739643
C        1.84187521       2.31779800      -0.81088849
H        1.42869768       2.68453700      -1.59623482
H        2.51834665       2.92022200      -0.49404517
H        1.17647509       2.19491000      -0.12808517
C        3.56900816       1.05314700      -2.25346901
H        3.13882157       1.38360600      -3.06992304
C        5.32525233      -0.18207400      -3.55350489
H        5.73233071      -1.05491200      -3.66453900
H        4.97024639       0.08794700      -4.41514835
C        6.37380643       0.78204600      -3.15123880
H        7.03691477       0.86077900      -3.85440229
H        6.81814028       0.46924000      -2.34740410
C        5.74854868       2.10098600      -2.89944435
H        5.38033700       2.43788400      -3.73088287
H        6.43326307       2.72249400      -2.60622157
C        4.65894285       2.05887800      -1.86819377
H        4.26609569       2.94052700      -1.77836554
H        5.03720269       1.80960500      -1.01038841
C        4.17470881      -0.30385000      -2.57258638
H        4.49361012      -0.71451800      -1.75356157
H        3.49129921      -0.88057400      -2.94960289
