21
Properties=species:S:1:pos:R:3 pbc="F F F"
S        2.71784996       0.70198000      -1.41152883
O        3.58391371      -0.01051000      -0.50473754
C        2.47740558       2.32318000      -0.70495876
C        1.25994600       2.96223000      -0.80522110
C        1.14185297       4.27838500      -0.37480607
C        2.23024038       4.95027700       0.12201728
C        3.40655446       4.29354700       0.26998089
C        3.55598563       2.96575200      -0.15761961
H        2.10092024       5.94634300       0.40146874
H        4.12832767       4.66415900       0.66150017
H        4.30996610       2.43518000       0.01472866
O       -1.30684707       0.00000000      -1.40090655
O       -1.59666079      -0.13300400      -3.59067763
N        1.30684707       0.00000000      -1.49340022
C       -0.86656866      -0.05978500      -2.61407984
C        0.64131837      -0.00897100      -2.79718811
H        0.93524176      -0.83622600      -3.49394592
H        0.92600536       0.67195300      -3.42249668
O        3.26358729       0.93579700      -2.73793004
H        0.48392250       2.46833000      -1.22679645
H        0.27846001       4.73422700      -0.47125963
