37
Properties=species:S:1:pos:R:3 pbc="F F F"
O        0.59147584      -2.13046600      -2.22418932
N        1.27240465       0.00000000      -1.52277432
N       -1.27240465      -0.00000000      -1.58426660
C        0.72743613      -0.75508700      -2.64068685
C        1.55315077      -0.63645900      -3.88990840
C        1.31540430      -1.47632300      -4.96474163
C       -0.72154739      -0.32390300      -2.76016306
C       -2.56256790       0.37652900      -1.53685402
C       -3.32624052       0.45670900      -2.70799258
C       -1.44551092      -0.25486900      -3.93959306
C        1.82720996      -2.81337800      -1.90666839
C        1.43831983      -4.04753800      -1.20708137
H        0.54168371      -2.12564800      -4.90599756
H       -2.95103572       0.58398200      -0.71850441
H       -1.05240300      -0.48386200      -4.75080898
H        2.31988207      -3.02098500      -2.71632773
H        2.38490666      -2.26055600      -1.33683244
H        0.83499203      -4.55169500      -1.75932262
H        2.22081125      -4.57394100      -1.02671801
H        1.00463697      -3.82464700      -0.38076468
C       -2.75300359       0.15704400      -3.89118329
H       -3.24612354       0.22883500      -4.67653761
Br       1.75892594      -2.52178400      -7.56003222
C        2.03574895      -1.33014100      -6.13179882
C        2.98672304      -0.33576200      -6.23002599
H        3.45912222      -0.29895500      -7.00395779
N        2.88927288       1.06641500      -2.84723315
C        2.23597824       0.81737000      -1.70324277
C        3.25729503       0.47264900      -5.16043177
C        2.57245513       0.30204000      -3.97720394
C        3.93749623       2.07220600      -2.91068095
H        2.62305100       1.27240000      -1.08593509
H        3.87772993       1.14492600      -5.22031791
H        4.74572108       1.67237800      -3.24137354
H        3.66717155       2.78008500      -3.50027861
H        4.09350413       2.42885700      -2.03312265
H       -4.21890352       0.71527600      -2.66967157
