46
Properties=species:S:1:pos:R:3 pbc="F F F"
O       -1.40010781       0.00000000      -1.34575502
O       -3.43861521      -0.57970100      -2.95420133
O        0.94871108       1.59281400      -5.13685039
N        1.40010781      -0.00000000      -1.42282278
C        1.08410845       1.16278700      -2.33654082
H        1.84713735       1.30292300      -2.93541672
C        1.61713322      -1.30558500      -2.11744510
H        1.79279464      -1.98478400      -1.44707335
H        0.79558033      -1.55090500      -2.57288598
C        2.74848315      -1.32501900      -3.12663081
H        2.56148470      -0.68309900      -3.82813290
H        3.57144025      -1.05721500      -2.68763617
C        2.93755624      -2.70657500      -3.74812159
H        2.10004700      -2.98636900      -4.14802431
H        3.15199552      -3.33799600      -3.04391285
C        4.02062399      -2.76499400      -4.79715751
H        4.08436433      -3.65900100      -5.14155858
H        3.80525780      -2.16089600      -5.51256650
H        2.18210176       0.28537200      -1.01394622
C       -1.26386309       0.85220600      -5.45596353
C       -1.25693383       0.28628200      -2.60223416
C       -2.45905657      -0.05133900      -3.46169520
C       -0.12988136       0.84568800      -3.17719606
C       -2.42467675       0.29266300      -4.90435848
C       -0.06839944       1.12612900      -4.60352671
C       -1.23587551       1.16043400      -6.82149902
H       -0.46883803       1.52883800      -7.19751292
C       -2.34426401       0.91731100      -7.61616178
H       -2.32424742       1.13448500      -8.52071438
C       -3.53407485       0.03489500      -5.70829823
H       -4.30056031      -0.34329600      -5.34203159
C       -3.48916772       0.34959000      -7.06417402
H       -4.22710337       0.17876000      -7.60297246
C        0.93786779       2.40047300      -1.43690779
C       -0.24432996       3.12966500      -1.32200353
C        2.04329683       2.81365000      -0.68639365
C        1.95080089       3.91993800       0.16232755
H        2.69317239       4.19483400       0.65109764
C       -0.34876319       4.21638200      -0.47056739
H       -1.15246724       4.68058900      -0.39753392
C        0.75504497       4.60777900       0.27544584
H        0.69041793       5.33463500       0.85306463
O        3.19688178       2.08963300      -0.83351026
H        3.78354546       2.41201400      -0.36130091
H       -0.98114545       2.87999700      -1.83103174
H        4.85892330      -2.51107000      -4.40670527
