47
Properties=species:S:1:pos:R:3 pbc="F F F"
O        1.41155006      -0.00000000      -1.31318248
C        1.28842917      -0.14179600      -2.59954989
O       -0.84453942      -1.18254800      -5.28641859
O        3.53251482       0.59903200      -2.78281195
C        0.15071126      -0.74845900      -4.70384292
C       -1.05690666      -1.02031600      -2.47306345
H       -1.80412054      -1.09282800      -3.10168111
C        2.53943556       0.05632500      -4.85304744
C        1.38506632      -0.41761700      -5.48575813
C        2.54193470       0.21625800      -3.37553774
C        0.17130893      -0.58959500      -3.25198608
C       -0.84548103      -2.41106700      -1.81715364
C       -0.26450525      -3.41394100      -2.58832284
H       -0.02447761      -3.23997800      -3.46989273
C        3.68023508       0.34717500      -5.57937309
H        4.44254426       0.65879600      -5.14792602
C        3.67970997       0.17039900      -6.95713548
H        4.44141777       0.36735200      -7.45384942
C        1.40920293      -0.60129000      -6.86392527
H        0.65873014      -0.92709200      -7.30543341
C        2.55768952      -0.29397000      -7.57619528
H        2.56385267      -0.40749100      -8.50113624
C       -0.03908722      -4.67641700      -2.04830050
H        0.35031166      -5.34652400      -2.56241839
C       -0.39405793      -4.91947900      -0.75738674
N       -0.13448485      -6.22789400      -0.16270752
O       -0.21462404      -6.35510800       1.04077594
C       -1.01900554      -3.95694000       0.00361890
H       -1.27809165      -4.14574300       0.87719072
C       -1.25606040      -2.72242600      -0.53495806
H       -1.70143364      -2.08085300      -0.02924169
H       -2.20789686      -0.28381900      -1.05943888
N       -1.41155006       0.00000000      -1.44811105
C       -1.69271632       1.31557500      -2.09240507
H       -0.86086111       1.68849300      -2.42623816
H       -2.28233021       1.17750900      -2.84976741
C       -2.33071563       2.30069400      -1.14105282
H       -3.19218079       1.95580600      -0.86118853
C       -2.52294552       3.67497100      -1.75981678
H       -3.04629756       3.57741500      -2.57110981
C       -3.20916391       4.69747700      -0.85424525
H       -3.29144847       5.53274700      -1.31980408
H       -2.68701889       4.82315100      -0.05881689
O        0.14270457      -7.15205400      -0.92330658
H       -1.77354530       2.38316600      -0.35081347
H       -1.65224608       4.02216600      -2.01429034
H       -4.08339590       4.37807500      -0.61542550
