45
Properties=species:S:1:pos:R:3 pbc="F F F"
N       -1.42142110      -0.00000000      -1.44021817
H       -1.81638093      -1.04750600      -3.17366001
C       -0.84050564      -2.39604100      -1.95340327
C       -1.06946496      -0.98447700      -2.52883435
C       -1.38467735      -2.84027900      -0.74362543
H       -1.88122027      -2.25264500      -0.22134463
C       -0.11577680      -3.32879800      -2.71069414
H        0.23977646      -3.07356300      -3.53195364
C       -1.19203851      -4.15712000      -0.30366967
H       -1.56878339      -4.43418600       0.50106278
C       -0.44902648      -5.04800200      -1.05520502
H       -0.31021300      -5.91610400      -0.75356476
C        0.08122290      -4.63448400      -2.25133575
H        0.57826733      -5.23106100      -2.76410689
C       -2.60513099       3.70446400      -1.54401961
H       -1.81477807       4.10334500      -1.93875433
H       -2.88583860       4.27848000      -0.81549290
C       -3.63305958       3.68578100      -2.52126620
H       -3.61011732       2.85141100      -2.99475458
H       -4.48502322       3.78613500      -2.09120826
H       -3.49940749       4.40802500      -3.14023987
C       -1.74175877       1.35655500      -2.02118896
C       -2.21737298       2.34331400      -0.96341169
H       -2.98428091       1.96711200      -0.50405646
O        1.42142110      -0.00000000      -1.32762643
C        1.28116295      -0.04481700      -2.62975461
C        0.13721426      -0.45995300      -3.30232606
C        2.40318083       0.53903000      -4.88916396
C        1.21084933       0.15694800      -5.54135115
C        0.04940447      -0.39190000      -4.76473790
C        1.10846827       0.30951600      -6.94118758
H        0.32984867       0.05054500      -7.38140370
C        2.16108098       0.84117100      -7.65848924
H        2.08718322       0.93960400      -8.58095132
O        3.56086337       0.64164000      -2.80545129
C        2.51526147       0.39584900      -3.40321749
C        3.46898867       1.07362700      -5.62260981
H        4.25631194       1.32162200      -5.19563898
C        3.33801723       1.23318600      -7.01458863
H        4.03594999       1.60143800      -7.50742023
O       -0.97814530      -0.73970800      -5.37290829
H       -2.42971440       1.25823800      -2.69781030
H       -0.94836349       1.71201900      -2.45384635
H       -2.11417350      -0.27551500      -0.98038526
H       -1.51336389       2.46843000      -0.30892211
