36
Properties=species:S:1:pos:R:3 pbc="F F F"
N        1.35614928      -0.00000000      -1.39744644
N       -1.35614928       0.00000000      -1.51656863
O       -2.57223180      -0.66110500      -1.35759909
C        1.24446613       0.98284000      -2.42408264
C        0.01372681       1.23055100      -3.04753398
C       -0.05264526       2.21656300      -4.03553520
C        1.05987400       2.92523900      -4.40156193
C        2.26370012       2.67582300      -3.80081395
H        3.02609209       3.16413700      -4.05373442
C        2.35449617       1.70194100      -2.81823230
H        3.18626490       1.52708200      -2.41478664
C       -1.21371670       0.48013200      -2.70602247
S        2.07019740      -1.37299700      -1.78744321
O        2.04079711      -2.16710800      -0.56561451
O        3.34121280      -1.16265000      -2.41455556
C        1.05033249      -2.18880400      -2.97325240
C       -0.05159435      -2.91540500      -2.56585100
H       -0.23691457      -3.01376700      -1.64945164
C        0.46956877      -2.61099100      -5.25151123
H        0.64766330      -2.50234600      -6.16794313
C        1.31725957      -2.03022300      -4.33190655
H        2.06223495      -1.53364400      -4.61734733
C       -2.27319415       0.25438000      -3.75444563
H       -1.97729160       0.62910600      -4.59929329
H       -3.09771482       0.68502500      -3.48034971
H       -2.42513691      -0.69848100      -3.85863111
C       -0.87987234      -3.49404000      -3.50122356
H       -1.62213692      -3.99614200      -3.21640622
C       -0.63208602      -3.34862000      -4.86212755
C       -1.56199403      -3.96332400      -5.87888512
H       -2.35553198      -3.41154000      -5.96540035
H       -1.81567380      -4.85181900      -5.58820500
H       -1.11187290      -4.01808200      -6.73645095
H        0.99515016       3.58586400      -5.06626015
H       -2.53733123      -1.14696600      -0.68610336
H       -0.87301631       2.39474500      -4.45688968
