70
Properties=species:S:1:pos:R:3 pbc="F F F"
O       -4.84516099       1.93428000      -0.93180267
O       -3.10081396       1.39934000       0.48254549
O        4.84394490      -1.94032000      -0.89740526
O        3.08209307      -1.39042000       0.50808321
N       -1.31341118       0.00000000      -1.53533455
N        1.31341118      -0.00000000      -1.54599398
C       -2.65866830       0.01889000      -1.48288964
C       -3.45850823       0.21956000      -0.25132815
C       -3.44536423      -0.07336000      -2.63732383
C       -2.88952409      -0.07821000      -3.85650938
C       -3.69953973      -0.06617000      -5.13434879
C       -1.50813319      -0.04733000      -3.90626927
C       -0.74045377      -0.01485000      -2.77458988
C        0.75201890       0.00275000      -2.76546824
C        1.51282438       0.03017000      -3.92293136
C        2.89390084       0.07823000      -3.84330163
C        3.73146382       0.07279000      -5.08886440
C        3.46964929       0.05915000      -2.56693343
C        4.85222340      -0.54354000      -0.78625547
C        3.46309713      -0.24463000      -0.19021227
C        2.64451587      -0.01445000      -1.49967192
C       -1.99347435       3.59009000      -0.98652314
C       -3.05891185       3.49991000      -0.69982919
C       -3.94248400       2.46895000       0.02681388
C       -4.70065761       2.97972000       1.19623322
C       -5.69423048       4.09547000       0.82227443
C        1.98169748      -3.68794000      -0.89336977
C        3.11606600      -3.50670000      -0.70865023
C        3.93755148      -2.48388000       0.04225471
C        4.67384579      -2.98595000       1.30357061
H       -3.44111159      -0.55150000       0.30263431
H       -3.12089624      -0.08684000      -5.88741939
H       -4.22155548       0.72772000      -5.15801710
H       -1.07414109      -0.04183000      -4.75242048
H        1.08500933       0.00340000      -4.77131031
H        3.50260847       0.82275000      -5.62237434
H        3.56875540      -0.72545000      -5.57848858
H        3.44778563       0.52447000       0.36717325
H       -1.85332204       4.28315000      -1.62485514
H       -1.66121068       3.86443000      -0.13766901
H       -1.53534857       2.80629000      -1.26469599
H       -3.42770498       4.34378000      -0.46517627
H       -3.30117081       3.28601000      -1.59308167
H       -4.06315821       3.35460000       1.79225483
H       -5.15732333       2.26727000       1.62738994
H       -6.12555225       4.40997000       1.60879176
H       -5.24891703       4.81869000       0.39632102
H        1.86559658      -4.51131000      -1.34788420
H        1.46451705      -3.69383000      -0.09902444
H        1.70026550      -2.97253000      -1.44537348
H        3.53985009      -3.56578000      -1.55566546
H        5.14958144      -2.26389000       1.69699105
H        4.04560441      -3.32916000       1.92818416
C        4.90942251       0.05013000      -2.16709471
H        5.28134178       0.92378000      -2.18759969
H        5.41231348      -0.52021000      -2.73643304
C        5.65633229      -4.12396000       0.85995106
H        6.10196294      -4.41563000       1.64647175
H        6.29418334      -3.79002000       0.23974013
H        5.19020632      -4.85529000       0.47093324
C       -4.84953939       0.51557000      -0.80073261
C       -4.90227947      -0.04817000      -2.21180060
H       -5.56002916       0.19695000      -0.25765280
H       -5.39490801       0.53350000      -2.77826127
H       -5.27949501      -0.92000000      -2.24813825
H       -4.27331355      -0.82327000      -5.15464887
H        5.55941356      -0.22505000      -0.23723002
H       -6.34309010       3.73136000       0.23058610
H        3.30475726      -4.28669000      -0.20320486
H        4.65114559       0.11842000      -4.85477985
