47
Properties=species:S:1:pos:R:3 pbc="F F F"
N        1.42699199      -0.00000000      -1.36552785
O        2.31739232       0.37602900      -3.37617774
N       -1.42699199       0.00000000      -1.34974586
C       -0.04047764       0.21962200      -3.44671667
C        2.87951921       0.10368000      -1.08831907
H        3.03883666       0.90590800      -0.53184195
C        1.22953162       0.13771700      -2.61526121
C       -2.86450635      -0.08610000      -1.02490097
H       -3.02578297      -0.83267000      -0.39487254
C       -3.48326923      -0.41990400      -2.42040899
H       -3.76415622      -1.35725600      -2.46720287
H       -4.25368528       0.15555200      -2.61242857
C       -0.15878033       1.59005400      -4.03359604
H       -0.23575502       2.24252000      -3.32001802
H       -0.94757112       1.63378300      -4.59650584
H        0.62999007       1.78290300      -4.56477683
C       -3.41645406       1.20558800      -0.45127023
O       -2.37745209      -0.15122900      -3.34762835
C       -5.09422186       2.34059000       0.86630546
H       -5.87222679       2.30408200       1.39477396
C       -4.55835390       1.16310400       0.34938978
H       -4.96734915       0.33935700       0.53973990
C       -2.85262759       2.42986500      -0.73022420
H       -2.10610909       2.48106400      -1.29674899
C       -3.38398764       3.60148700      -0.17431138
H       -2.97099864       4.42839700      -0.34379949
C       -1.26634052      -0.00331600      -2.60155686
C       -4.50358085       3.55304600       0.61805650
H       -4.86098291       4.34211300       0.98527370
C        3.45430140       0.36261200      -2.49029826
C        0.06761299      -0.81601400      -4.57257088
H       -0.73052985      -0.78357900      -5.12171936
H        0.16018292      -1.70232700      -4.18811348
H        0.84479172      -0.61818300      -5.11933023
C        3.48345116      -3.25684600       0.58350410
H        3.00159188      -4.03063500       0.81684668
C        3.52440228      -1.09834000      -0.39561648
C        2.82315396      -2.24585200      -0.08211671
H        1.91755116      -2.33671400      -0.31801875
C        4.79847835      -3.18493000       0.92103638
H        5.22455990      -3.88428200       1.38273573
C        5.49765372      -2.01398700       0.54789577
H        6.41514419      -1.94445700       0.74019205
C        4.86881774      -0.99300300      -0.08158244
H        4.08158864      -0.34740700      -2.74628850
H        5.34400114      -0.21287600      -0.30488449
H        3.92449388       1.22178000      -2.51925233
