21
Properties=species:S:1:pos:R:3 pbc="F F F"
C       -0.01690024      -0.09902700      -2.75623375
C        1.02826103      -0.61583000      -4.87311616
H        1.24104417      -1.57916500      -4.79358447
H        1.81089231      -0.09251500      -4.56812028
C        0.68589583      -0.26666700      -6.30751280
H        1.34267716      -0.69538200      -6.91026808
H       -0.20903722      -0.63358600      -6.52393659
C        0.68135068       1.21763300      -6.56143914
H        0.18383424       1.70199900      -5.84034759
C        2.36903016       2.91478100      -6.22718839
H        1.69081640       3.48920900      -6.63795935
H        3.25610705       3.16684000      -6.56230010
H        2.34570502       3.02364000      -5.25273465
C        0.11751954       1.53796300      -7.90479306
H        0.22172250       2.49540400      -8.08336493
H       -0.83570232       1.30441000      -7.92293717
H        0.59193171       1.02260600      -8.58956979
O       -0.13989818      -0.28670300      -4.08045529
O        2.11124795       1.58536500      -6.55051446
S        1.46702233      -0.00000000      -1.95793445
S       -1.46702233       0.00000000      -1.88711069
