28
Properties=species:S:1:pos:R:3 pbc="F F F"
N       -1.29185180      -0.00000000      -1.51132426
C       -3.42694872      -0.22285600      -2.52902873
C       -2.85328959      -0.18405100      -3.77444948
H       -3.38554590      -0.22218800      -4.53718891
C       -1.49870072      -0.08830900      -3.88661109
H       -1.09531209      -0.06856200      -4.72461418
C       -0.73503415      -0.02361800      -2.73662582
C        0.76330816       0.02187000      -2.77650136
H        1.05314956       0.82841900      -3.22965097
S        2.83868642       0.31743100      -1.32108333
O        3.56910512      -0.37484400      -2.34818178
O        3.24434578       0.11139100       0.03858032
N        1.29185180       0.00000000      -1.43540616
C       -2.62443867      -0.10257500      -1.41515045
H       -3.01932881      -0.09353400      -0.57274567
C        3.02402309       2.03547000      -1.65448527
C        2.51778344       2.94430500      -0.77622354
H        2.06424135       2.65731600      -0.01818652
C        2.68068181       4.29065000      -1.01557817
C        3.29339651       4.74193500      -2.08829267
C        3.82441809       3.85422400      -2.93586067
H        4.29733397       4.16267600      -3.67464293
C        3.69127297       2.50750200      -2.75048460
H        4.05457289       1.91378600      -3.36734377
H        2.34546896       4.90065500      -0.39828224
H        1.09939914      -0.74126500      -3.27196553
H       -4.34530215      -0.32785200      -2.43749901
H        3.35642108       5.65486300      -2.25200776
