59
Properties=species:S:1:pos:R:3 pbc="F F F"
O       -1.28305298      -0.00000000      -1.36598656
O       -1.23195763       1.43066000      -3.21375015
N        1.28305298       0.00000000      -1.49551331
N       -0.57166617      -1.79003000      -3.97944787
C       -0.79467585       0.18398000      -2.61675393
C        0.74236493       0.17601000      -2.63898920
C       -1.36513056      -0.91224000      -3.52910468
C        2.69828267      -0.11130000      -1.29401924
C        3.43021932       1.00954000      -0.88575645
C        4.75713950       0.82653000      -0.55013711
C        5.37825972      -0.41029000      -0.58569147
C        4.60896070      -1.50052000      -1.01670366
C        3.27915034      -1.37502000      -1.35566028
C        2.76388488       2.35450000      -0.80206893
C        6.82187431      -0.59850000      -0.20001837
C        2.44386790      -2.58824000      -1.72062498
C       -1.07135580      -2.88029000      -4.75987575
C       -1.07618833      -2.76939000      -6.16314256
C       -1.45448283      -3.89075000      -6.89813440
C       -1.84981728      -5.14047000      -4.92362034
C       -1.45589415      -4.06328000      -4.13116054
C       -0.69703809      -1.47822000      -6.81806062
C       -1.43180323      -4.17707000      -2.63303834
C        1.50317299       0.44464000      -3.90519072
C       -2.86076551      -0.86249000      -3.70278269
C       -1.15255096       2.53263000      -2.32538582
H        5.21268745       1.43837000      -0.14931980
H        5.12756043      -2.46234000      -0.83826041
H        2.43028501       2.58776000      -1.66010295
H        2.04540186       2.31617000      -0.18230608
H        3.39272362       3.00808000      -0.51817805
H        7.36468844      -0.07609000      -0.77831151
H        6.95388299      -0.31829000       0.69714911
H        7.05861455      -1.51464000      -0.28461029
H        2.07691348      -2.46007000      -2.58693715
H        2.98631683      -3.36850000      -1.71873710
H        1.74098628      -2.68960000      -1.08964976
H       -1.38786436      -3.70414000      -7.82887086
H       -2.14882685      -6.00494000      -4.52365488
H       -1.29910247      -0.79788000      -6.53840225
H        0.18723451      -1.24256000      -6.56385001
H       -0.74125071      -1.57071000      -7.76304441
H       -0.54443476      -4.03448000      -2.32503484
H       -1.72144973      -5.04425000      -2.37478792
H       -2.00761545      -3.52459000      -2.25215672
H        2.01315398       1.23972000      -3.80601682
H        2.08628454      -0.28545000      -4.07836139
H        0.89787607       0.54578000      -4.62917638
H       -3.07607019      -0.81600000      -4.62710401
H       -3.24362572      -1.64718000      -3.32796007
H       -3.20717786      -0.09827000      -3.25836449
H       -1.45298520       3.31956000      -2.76684420
H       -0.25225579       2.65034000      -2.04678498
H       -1.70023247       2.36685000      -1.56657227
C       -1.85587992      -5.06214000      -6.31264543
C       -2.32193787      -6.23497000      -7.15306855
H       -2.56309008      -6.96270000      -6.59133075
H       -1.62769277      -6.50447000      -7.74184698
H       -3.07895798      -5.96143000      -7.65885768
