19
Properties=species:S:1:pos:R:3 pbc="F F F"
N        1.31788722      -0.00000000      -1.48393562
H        2.04105381      -0.48628200      -1.30371269
H        1.63934474       0.82841400      -1.51227915
C        0.65171550      -0.34856000      -2.76440828
C        0.87272807      -1.81902400      -3.10978646
H        0.65795664      -2.37648300      -2.32106188
C        2.32238650      -2.09098300      -3.54203416
H        2.93717300      -1.60348600      -2.93819885
C        2.66592867      -3.56353600      -3.51644080
O        1.80802388      -4.43509600      -3.36770080
N        3.96679357      -3.86504000      -3.64325307
H        4.22783096      -4.70609200      -3.62237707
H        4.55902911      -3.22309800      -3.74818654
O       -1.54380409       0.03619000      -3.64381267
C       -0.84619616      -0.07202700      -2.62097656
O       -1.31788722       0.00000000      -1.42447112
H        0.25912377      -2.07822900      -3.84250386
H        1.02430973       0.22243000      -3.49661997
H        2.45789324      -1.74288600      -4.45883260
