41
Properties=species:S:1:pos:R:3 pbc="F F F"
Br      -2.09799921       5.50254300       0.53075053
N        1.32169748       0.00000000      -1.45123819
H        1.98437233      -0.62503400      -1.26241756
O       -1.32169748      -0.00000000      -1.40518893
O       -1.59387705      -0.43981800      -3.54588421
O        3.47499721       3.33021300      -3.01895156
O        2.09568582       3.06682500      -4.78791590
C        1.96227744       1.35897700      -1.65507575
H        2.80386474       1.40015900      -1.11642479
C        2.33505757       1.30042700      -3.15276674
H        3.17825256       0.76787600      -3.23312116
C        1.21196654       0.49576100      -3.83648032
H        0.51880306       1.09959100      -4.20423600
H        1.57299092      -0.06242300      -4.56936864
C        0.63784845      -0.37644000      -2.71410988
H        0.85257069      -1.33262300      -2.91627822
C       -0.87519234      -0.24368900      -2.56965671
C        2.59563262       2.66862100      -3.76757817
C        3.86639570       4.72911000      -3.37620515
C        2.68120326       5.63462500      -3.25591527
H        2.29613050       5.55236700      -2.35842000
H        2.00933231       5.38487100      -3.92414169
H        2.96188947       6.56204400      -3.40711036
C        4.89340609       5.03897000      -2.32061143
H        4.48098970       4.97273300      -1.43439166
H        5.23606055       5.94711400      -2.45536113
H        5.63142823       4.39785700      -2.38586045
C        4.49558691       4.74422500      -4.74745568
H        3.80278123       4.59942000      -5.42512258
H        5.16475195       4.03146500      -4.80822324
H        4.92625278       5.61116200      -4.90055855
C        1.03674631       2.47499800      -1.20108385
C        0.06970918       3.05271300      -2.02306787
H        0.01460152       2.80154400      -2.93780473
C       -0.81843604       3.99742900      -1.50944900
H       -1.44097733       4.42272200      -2.08709274
C       -0.80085061       4.31573600      -0.19101045
C        0.20040363       3.80146200       0.63005368
H        0.26284328       4.07950500       1.53616263
C        1.10105784       2.88697700       0.12606840
H        1.77640578       2.53421700       0.69354912
