18
Properties=species:S:1:pos:R:3 pbc="F F F"
O        1.34430200      -0.00000000      -1.38855200
O       -1.34430200      -0.00000000      -1.38855200
C        0.69340800       0.32193700      -2.59754500
C       -0.69340800      -0.32193700      -2.59754500
C        1.46629000      -0.06925600      -3.84349800
C       -1.46628900       0.06925500      -3.84349800
C        0.69999100       0.28670400      -5.10852800
C       -0.69999000      -0.28670500      -5.10852800
H        0.59867400       1.50047800      -2.72273600
H       -0.59867300      -1.50047900      -2.72273600
H        2.35995400       0.37643600      -3.87926700
H        1.57357100      -0.92916000      -3.89119000
H       -1.57357100       0.92915900      -3.89119000
H        1.15647100       0.05266200      -5.78694700
H       -1.15647000      -0.05266200      -5.78694700
H        0.65856400       1.40954200      -5.16695100
H       -0.65856400      -1.40954300      -5.16695100
H       -2.35995300      -0.37643600      -3.87926700
