45
Properties=species:S:1:pos:R:3 pbc="F F F"
S        2.83618332      -0.35582000      -1.23023182
C       -2.62067818      -0.12003800      -1.48049695
H       -3.04564156      -0.31917000      -0.67893411
N       -1.30525099      -0.00000000      -1.51093935
N        1.30525099      -0.00000000      -1.38519356
O        2.93891755      -0.87827800       0.14145173
O        3.66149869       0.73881300      -1.57153234
C        1.45440534       0.65780600      -3.83515708
H        2.38335213       0.70060000      -3.86863270
C        0.67111213       0.91459100      -4.96823214
H        1.10391550       1.28934600      -5.70165130
C       -0.60703967       0.67953600      -5.09723905
H       -1.01720209       0.67071700      -5.93198148
C       -1.35254421       0.43544400      -3.89354897
C       -0.66567462       0.29537200      -2.69960187
C        0.77861343       0.33309800      -2.65110183
C       -2.77366439       0.34406100      -3.85177575
H       -3.28192448       0.48046300      -4.61874696
C       -3.38014540       0.04823600      -2.64355198
H       -4.30439965      -0.03839600      -2.60361792
C        1.21018192      -6.80466600      -4.82775410
H        0.93559773      -6.36437300      -5.63471385
H        1.41433538      -7.72254700      -5.01804684
H        0.49971206      -6.76208400      -4.18303404
C        3.61653555      -6.97024500      -3.88192585
H        3.87938543      -6.77183100      -2.97941572
H        3.36378664      -7.89266200      -3.94658316
H        4.35203026      -6.79649300      -4.47400353
C        3.69559897      -3.58366400      -4.37480585
H        3.85278120      -4.19636700      -5.05671198
C        4.31174782      -2.43212600      -4.38429524
H        4.92200563      -2.25975200      -5.06467635
C        4.08581728      -1.40352600      -3.37469403
H        4.56680415      -0.60751900      -3.37825694
C        3.13964647      -1.65898200      -2.42272110
C        2.49663877      -2.93360900      -2.29610024
C        2.76178042      -3.91342500      -3.30016624
C        1.14927561      -5.38051600      -2.25539001
H        0.66023827      -6.17203600      -2.25301423
C        2.13258428      -5.14149100      -3.24924561
N        2.45753374      -6.10775400      -4.26177327
C        1.56291585      -3.23266100      -1.32478508
H        1.36987932      -2.59272300      -0.67944390
C        0.92743481      -4.39995300      -1.27592518
H        0.32979769      -4.56884600      -0.58414586
