59
Properties=species:S:1:pos:R:3 pbc="F F F"
O       -2.37850595      -0.01301000      -3.42350025
N        1.39406700       0.00000000      -1.41664671
N       -1.39406700      -0.00000000      -1.41306823
C        2.87208684      -0.06092000      -1.12588242
C        3.24796587      -1.45915000      -0.62691818
C        3.11387790      -2.53942000      -1.70122687
C        4.65735007      -1.43155000      -0.03817296
C       -1.26675059      -0.00890000      -2.68388736
C       -2.85609518       0.11412000      -1.10645845
C       -3.49645224      -0.11135000      -2.47771248
C       -3.14223930       1.47493000      -0.44972859
C       -2.74894731       2.65624000      -1.32229649
C       -4.61780799       1.54456000      -0.05174029
H        3.02048262       0.53307000      -0.41040023
H        2.62536281      -1.69193000       0.06419218
H        3.26477991      -3.38216000      -1.34371393
H        2.24692700      -2.57393000      -2.10463639
H        3.65767964      -2.39116000      -2.40836104
H        4.68514537      -0.79375000       0.71224955
H        5.27990346      -1.14368000      -0.67712495
H        4.90003032      -2.35933000       0.30295587
H       -3.06962590      -0.51750000      -0.53336921
H       -4.10445030       0.58865000      -2.68156609
H       -3.87094450      -0.98636000      -2.62757347
H       -2.58714628       1.46514000       0.36856291
H       -2.84954332       3.53187000      -0.90830790
H       -4.80266143       2.30812000       0.47803521
H       -5.20221320       1.61112000      -0.80568262
H       -4.87344330       0.83688000       0.49342985
C        0.31263549      -2.73539000      -5.92528342
C        1.69937011      -2.95951000      -6.56172684
C        1.83052472      -4.40178000      -7.04511960
H       -0.33878477      -3.00711000      -6.53853299
H        1.75526438      -2.40981000      -7.33058869
H        2.70874362      -4.61760000      -7.50546301
H        1.17851073      -4.62726000      -7.70030879
H        1.85314594      -4.94315000      -6.35739799
O        0.11589709      -2.35878000      -3.60026871
C        0.09293825      -3.45534000      -4.57724188
C        2.84410253      -2.58091000      -5.61693410
H        2.72302015      -1.72183000      -5.32939682
H        2.93125414      -3.27722000      -4.89033430
H        3.73714935      -2.48958000      -6.11309696
O        2.36248072       0.19928000      -3.42657312
N        0.12401109      -1.29562000      -5.60987148
C       -0.00567741       0.04474000      -3.51527852
C       -0.07426644       1.26911000      -4.44937528
C        1.26087892       0.08024000      -2.68489235
C        3.47493591       0.34699000      -2.47867056
C        0.06731550      -1.23108000      -4.35062440
H       -0.23770958       2.05442000      -3.94581680
H        0.60387878       1.38970000      -4.93659259
H       -0.78035183       1.26257000      -5.04196875
H        3.76366306       1.28617000      -2.49924053
H        4.14988070      -0.17489000      -2.78149280
H       -1.88251381       2.64868000      -1.62739445
H        0.82495486      -4.07370000      -4.32443862
H       -3.20201553       2.71955000      -2.09079251
H       -0.77012447      -3.97801000      -4.45088360
