60
Properties=species:S:1:pos:R:3 pbc="F F F"
P       -0.99937048       0.56038000      -2.91163475
S       -1.89059336       0.00000000      -1.21705549
S        1.89059336       0.00000000      -1.15661439
O       -0.58712719       2.08908000      -2.92889493
O       -2.04620115       0.48506000      -4.10317344
N        0.27903632      -0.26597000      -3.40519002
N        2.35287269      -1.24084000      -3.40939014
H        3.07674053      -1.36879000      -2.99790702
C        1.42138410      -0.49453000      -2.77260536
C       -1.37525681       3.16400000      -2.29914271
H       -1.71679819       2.85312000      -1.41184695
C        2.14472117      -2.02866000      -4.57025296
C        2.61587451      -3.34392000      -4.54761164
H        3.07545902      -3.66233000      -3.77848063
C        2.42790217      -4.19026000      -5.61803213
H        2.73970624      -5.08571000      -5.57103185
C        1.51179069      -1.56833000      -5.72093584
H        1.19453508      -0.67365000      -5.76527302
C       -0.40854858       4.31376000      -2.09493065
H       -0.87953727       5.06772000      -1.68230444
H       -0.04435859       4.59214000      -2.96176314
P        2.95951974      -5.59232000      -8.53537699
O        3.87920472      -4.46033000      -9.13996514
O        3.59965816      -6.45403000      -7.52557790
C        1.77917234      -3.73945000      -6.77649473
C        1.34605400      -2.41786000      -6.80214308
H        0.92370742      -2.08840000      -7.58518235
C        1.52240967      -4.67960000      -7.95259710
C        5.19021301      -4.80174000      -9.70911388
H        5.85885307      -4.14110000      -9.39583696
H        5.46501024      -5.69145000      -9.37307977
C        5.19564972      -4.82305000     -11.09841560
H        6.09254793      -5.05669000     -11.41754875
H        4.94676834      -3.93730000     -11.43903226
H        4.55141569      -5.48837000     -11.41689455
O        2.43650710      -6.38437000      -9.79749181
C        2.12452161      -7.79797000      -9.72330242
H        1.51731202      -7.95953000      -8.95829536
C        1.50861749      -8.27276000     -10.91781588
H        1.30656836      -9.22616000     -10.82487631
H        2.11765226      -8.13904000     -11.67380663
H        0.67809598      -7.77649000     -11.07528018
C       -2.91373482      -0.68560000      -4.31085152
H       -2.91535470      -1.25445000      -3.48813972
C       -4.30772075      -0.13070000      -4.55394112
H       -4.59961573       0.37669000      -3.76730720
H       -4.93067638      -0.87034000      -4.71494661
H       -4.29318544       0.46109000      -5.33568232
C       -2.39843217      -1.48333000      -5.47816795
H       -1.50333006      -1.82325000      -5.27141082
H       -2.35523333      -0.90875000      -6.27126289
H       -3.00203442      -2.23389000      -5.65263568
C       -2.53721846       3.53063000      -3.18414000
H       -3.13395866       2.75806000      -3.27642406
H       -2.20490396       3.79422000      -4.06763772
H       -3.02934922       4.27711000      -2.78487703
H        1.16194429      -4.14834000      -8.70568371
H        0.32334109       4.02649000      -1.50989686
H        0.82520345      -5.33203000      -7.68598213
H        2.95779921      -8.30828000      -9.56181760
