44
Properties=species:S:1:pos:R:3 pbc="F F F"
N       -1.32563624      -0.00000000      -1.53035135
N        1.32563624       0.00000000      -1.57605256
C       -2.66085119       0.06210800      -1.46368746
H       -3.08317775       0.04828600      -0.61352744
C       -3.42829154       0.14343100      -2.58421111
H       -4.37237273       0.20686000      -2.50844197
C       -2.83467603       0.13576500      -3.83896665
C       -1.44711723       0.06410600      -3.91764515
C       -0.72329967       0.00623600      -2.73876877
C        0.74379995      -0.05444200      -2.68919915
O        3.00222401      -1.97919200      -2.97661953
C        2.77933870      -0.16576000      -1.41650428
H        2.92206610      -0.82441500      -0.67764798
C        3.43282710       1.14252700      -0.98650358
C        2.99931898       2.37116900      -1.45946599
C        3.67550892       3.51413200      -1.12226372
C        4.78541761       3.45388200      -0.30642391
H        5.25041099       4.25159100      -0.07765905
C        5.21809156       2.24501500       0.17378553
H        5.97655156       2.20921800       0.74487807
C        4.56288833       1.08037100      -0.16073129
H        4.87419522       0.24311500       0.16316931
C        3.50595267      -0.69460200      -2.63006109
H        3.38202052      -0.07326700      -3.39019026
H        4.47547695      -0.75811900      -2.43713912
C        3.82520652      -2.62231200      -3.94820346
H        4.76770696      -2.62486300      -3.64271330
H        3.77938568      -2.13189700      -4.80663221
C        3.35160912      -4.02132700      -4.13971115
C        2.70032425      -6.15823700      -3.22617814
H        2.51341302      -6.71160700      -2.47697091
C        3.11874816      -4.85109900      -3.04966315
H        3.24989865      -4.51702400      -2.16966790
F        2.17671390      -7.93013500      -4.68116292
C        3.18828630      -4.53900200      -5.41237646
H        3.34721097      -3.98382000      -6.16619135
C        2.78988554      -5.86889100      -5.60567350
H        2.68344535      -6.22445200      -6.48035729
C        2.55967476      -6.63853800      -4.49641603
H        1.24828927      -0.13570800      -3.48987172
H       -3.36396614       0.17815800      -4.62686507
H        3.37718599       4.35227900      -1.45402427
H       -1.00654556       0.05631600      -4.75981889
H        2.23251935       2.42096300      -2.01906267
