23
Properties=species:S:1:pos:R:3 pbc="F F F"
O       -1.31260103       0.00000000      -1.43207557
N        1.31260103      -0.00000000      -1.50661148
C        0.63768475      -0.64796500      -2.66658923
H        2.06797116      -0.45274900      -1.46593567
H        1.44332696       0.85645600      -1.67573687
C       -0.86104024      -0.39018900      -2.55152722
O       -1.54660292      -0.61980900      -3.55795216
C        0.74333326      -3.96952700       1.23217159
C        1.98598323      -3.65341800       0.64120113
H        2.79906096      -3.81938100       1.10454914
C        1.99873053      -3.10318100      -0.61330384
H        2.83722887      -2.91213300      -1.01728785
C        0.83817172      -2.81291000      -1.32099836
C       -0.37515547      -3.11783700      -0.73289873
H       -1.18477457      -2.93627100      -1.19597103
C       -0.41466742      -3.69010900       0.54254991
C        0.93571909      -2.14988200      -2.68891519
H        0.29908154      -2.59342400      -3.30494301
H        1.84811654      -2.28960500      -3.04766139
O        0.65804903      -4.54486500       2.46064481
H        1.46083216      -4.45934500       2.69852866
H        0.97537772      -0.23577400      -3.51309924
H       -1.25439259      -3.89009100       0.93871232
