50
Properties=species:S:1:pos:R:3 pbc="F F F"
O       -3.66349862      -0.22468000      -2.48085043
O       -1.40125335      -0.00000000      -1.26866623
C       -2.56595268      -0.67696300      -4.62968802
H       -3.38237251      -0.79088500      -5.09970814
C       -2.60973770      -0.39307900      -3.27054197
C       -1.33124052      -0.22225600      -2.52020959
C       -4.97321446      -0.26570600      -3.10607763
H       -5.06036828       0.48440900      -3.73054029
H       -5.66670408      -0.19871000      -2.41666451
H       -5.07637409      -1.10896900      -3.59184053
N        2.39150080       2.59562400      -0.67419156
N        1.40125335       0.00000000      -1.40945916
C        3.24333451       1.72229600      -1.42089823
H        3.09276769       1.87281500      -2.39727742
C        4.70020779       1.94244500      -1.10582466
H        4.84675549       1.85951100      -0.12932960
H        4.96615979       2.85535200      -1.38045155
C        5.58801621       0.88267800      -1.86396263
H        5.39456220       0.91569300      -2.83428878
H        6.54622918       1.08941700      -1.73081314
C        5.28053898      -0.48936000      -1.32639752
H        5.46205698      -0.52154600      -0.35330073
H        5.85269053      -1.16450600      -1.77199288
C        3.77298818      -0.79841600      -1.60232908
H        3.63796371      -0.86664600      -2.58022953
H        3.55178934      -1.67891000      -1.20695166
C        2.80983102       0.23952700      -1.04924138
H        2.86267425       0.17114300      -0.05301197
C        1.10777118      -0.13386400      -2.65703950
H        1.84347311      -0.09768900      -3.25643708
C       -0.14591843      -0.32592400      -3.25304216
C       -0.17703022      -0.57780100      -4.64900632
H        0.64175093      -0.59468500      -5.13833607
C       -1.38315321      -0.79911300      -5.31730455
H       -1.38596044      -1.03261600      -6.23825416
O        1.35796703       6.48746900      -1.82973595
H        1.70630667       5.86507500      -2.27236518
O        2.65015275       4.30058700      -2.08526454
C        0.82685819       5.98446200      -0.67822394
C       -0.00542468       6.75306200       0.02266313
H       -0.17979498       7.64672600      -0.24703808
C       -0.62273721       6.21630800       1.17617816
H       -1.23335794       6.74863000       1.67148272
C       -0.34673307       4.91187600       1.59488991
H       -0.76432011       4.54228600       2.36326873
C        0.56614764       4.17486000       0.83881173
H        0.77997191       3.29117400       1.11303362
C        1.14631046       4.66577800      -0.25368713
C        2.12792011       3.84829600      -1.11605788
H        2.03465864       2.31631400       0.08018385
